<routes>
  <vType id="bus_type" vClass="bus"/>
  <flow id="bus_loop" type="bus_type" begin="0" end="3600" period="8" from="397795463#0" to="397795463#0" via="846142553#0">
    <stop busStop="bus_stop_26" duration="20"/>
    <stop busStop="bus_stop_58" duration="20"/>
  </flow>
</routes>
