<routes>
  <vType id="bus_type" vClass="bus"/>
  <flow id="bus_loop" type="bus_type" begin="0" end="3600" period="8" from="420907908#0" to="420907908#0">
    <stop busStop="bus_stop_29" duration="20"/>
    <stop busStop="bus_stop_24" duration="20"/>
    <stop busStop="bus_stop_28" duration="20"/>
    <stop busStop="bus_stop_59" duration="20"/>
    <stop busStop="bus_stop_52" duration="20"/>
    <stop busStop="bus_stop_59" duration="20"/>
    <stop busStop="bus_stop_28" duration="20"/>
    <stop busStop="bus_stop_24" duration="20"/>
    <stop busStop="bus_stop_29" duration="20"/>
  </flow>
</routes>
