<?xml version="1.0" encoding="UTF-8"?>

<!-- generated on 2026-03-13T11:22:05.205399+05:30 by Eclipse SUMO netconvert 1.26.0
<netconvertConfiguration xmlns:xsi="http://www.w3.org/2001/XMLSchema-instance" xsi:noNamespaceSchemaLocation="http://sumo.dlr.de/xsd/netconvertConfiguration.xsd">

    <input>
        <node-files value="manhattan_plain.nod.xml"/>
        <edge-files value="manhattan_plain.edg.xml"/>
        <type-files value="manhattan_plain.typ.xml"/>
    </input>

    <output>
        <output-file value="manhattan_new.net.xml"/>
        <output.street-names value="true"/>
    </output>

    <tls_building>
        <tls.guess value="true"/>
        <tls.default-type value="actuated"/>
    </tls_building>

    <pedestrian>
        <crossings.guess value="true"/>
    </pedestrian>

</netconvertConfiguration>
-->

<net version="1.20" junctionCornerDetail="5" walkingareas="true" limitTurnSpeed="5.50" xmlns:xsi="http://www.w3.org/2001/XMLSchema-instance" xsi:noNamespaceSchemaLocation="http://sumo.dlr.de/xsd/net_file.xsd">

    <location netOffset="-584856.12,-4511957.89" convBoundary="0.00,0.00,1576.40,997.28" origBoundary="-74.001970,40.748055,-73.968029,40.775167" projParameter="+proj=utm +zone=18 +ellps=WGS84 +datum=WGS84 +units=m +no_defs"/>

    <type id="highway.living_street" priority="2" numLanes="1" speed="8.00" disallow="tram rail_urban rail rail_electric rail_fast ship container cable_car subway aircraft wheelchair scooter drone" oneway="0"/>
    <type id="highway.primary" priority="12" numLanes="3" speed="13.90" disallow="tram rail_urban rail rail_electric rail_fast ship container cable_car subway aircraft wheelchair scooter drone" oneway="0"/>
    <type id="highway.residential" priority="3" numLanes="2" speed="11.00" disallow="tram rail_urban rail rail_electric rail_fast ship container cable_car subway aircraft wheelchair scooter drone" oneway="0"/>
    <type id="highway.secondary" priority="11" numLanes="3" speed="13.90" disallow="tram rail_urban rail rail_electric rail_fast ship container cable_car subway aircraft wheelchair scooter drone" oneway="0"/>
    <type id="highway.service" priority="1" numLanes="1" speed="8.00" allow="pedestrian delivery bicycle" oneway="0"/>
    <type id="highway.unclassified" priority="4" numLanes="2" speed="11.00" disallow="tram rail_urban rail rail_electric rail_fast ship container cable_car subway aircraft wheelchair scooter drone" oneway="0"/>

    <edge id=":10279559005_w0" function="walkingarea">
        <lane id=":10279559005_w0_0" index="0" allow="pedestrian" speed="2.78" length="0.10" width="3.20" shape="271.83,87.98 283.09,81.88"/>
    </edge>
    <edge id=":10598594003_0" function="internal">
        <lane id=":10598594003_0_0" index="0" disallow="tram rail_urban rail rail_electric rail_fast ship container cable_car subway aircraft wheelchair scooter drone" speed="11.18" length="8.27" shape="750.34,166.49 748.42,168.11 747.59,169.81 746.76,171.51 744.83,173.12"/>
        <lane id=":10598594003_0_1" index="1" disallow="tram rail_urban rail rail_electric rail_fast ship container cable_car subway aircraft wheelchair scooter drone" speed="11.18" length="8.27" shape="748.82,163.68 746.89,165.29 746.06,166.99 745.24,168.69 743.31,170.31"/>
        <lane id=":10598594003_0_2" index="2" disallow="tram rail_urban rail rail_electric rail_fast ship container cable_car subway aircraft wheelchair scooter drone" speed="11.18" length="8.27" shape="748.82,163.68 741.79,167.49">
            <neigh lane=":10598594003_3_1"/>
        </lane>
    </edge>
    <edge id=":10598594003_3" function="internal">
        <lane id=":10598594003_3_0" index="0" disallow="tram rail_urban rail rail_electric rail_fast ship container cable_car subway aircraft wheelchair scooter drone" speed="11.18" length="8.27" shape="738.74,161.86 745.77,158.05"/>
        <lane id=":10598594003_3_1" index="1" disallow="tram rail_urban rail rail_electric rail_fast ship container cable_car subway aircraft wheelchair scooter drone" speed="11.18" length="8.27" shape="740.26,164.68 747.29,160.87">
            <neigh lane=":10598594003_0_2"/>
        </lane>
    </edge>
    <edge id=":10598594003_w0" function="walkingarea">
        <lane id=":10598594003_w0_0" index="0" allow="pedestrian" speed="2.78" length="11.10" width="16.00" shape="751.11,167.90 745.00,156.65 737.97,160.46 745.60,174.53 747.87,172.35 748.35,171.21 748.84,170.07 749.65,168.96"/>
    </edge>
    <edge id=":10686429941_0" function="internal">
        <lane id=":10686429941_0_0" index="0" allow="bus bicycle" speed="5.56" length="9.13" shape="344.43,266.51 343.87,263.90 342.66,262.44 340.79,262.12 338.25,262.94"/>
    </edge>
    <edge id=":10686429941_1" function="internal">
        <lane id=":10686429941_1_0" index="0" allow="bus bicycle" speed="3.65" length="4.67" shape="344.43,266.51 345.14,265.26 345.91,264.80 346.74,265.14 347.62,266.28"/>
    </edge>
    <edge id=":11191334801_0" function="internal">
        <lane id=":11191334801_0_0" index="0" disallow="tram rail_urban rail rail_electric rail_fast ship container cable_car subway aircraft wheelchair scooter drone" speed="11.18" length="8.21" shape="510.86,514.16 512.22,516.15 513.46,517.30 514.71,518.45 516.07,520.44"/>
        <lane id=":11191334801_0_1" index="1" disallow="tram rail_urban rail rail_electric rail_fast ship container cable_car subway aircraft wheelchair scooter drone" speed="11.18" length="8.21" shape="508.04,515.68 509.40,517.67 510.65,518.82 511.89,519.97 513.25,521.96"/>
        <lane id=":11191334801_0_2" index="2" disallow="tram rail_urban rail rail_electric rail_fast ship container cable_car subway aircraft wheelchair scooter drone" speed="11.18" length="8.21" shape="508.04,515.68 508.96,517.91 509.24,519.58 509.51,521.25 510.43,523.48"/>
    </edge>
    <edge id=":11191334801_w0" function="walkingarea">
        <lane id=":11191334801_w0_0" index="0" allow="pedestrian" speed="2.78" length="8.16" width="3.20" shape="509.02,524.24 517.47,519.68 515.69,517.26 514.87,516.54 514.05,515.83 513.19,514.86 512.27,513.40 506.64,516.44 507.68,519.26 507.83,520.34 507.97,521.42 508.31,522.66"/>
    </edge>
    <edge id=":12217736860_0" function="internal">
        <lane id=":12217736860_0_0" index="0" disallow="pedestrian tram rail_urban rail rail_electric rail_fast ship container cable_car subway aircraft wheelchair scooter drone" speed="11.18" length="9.22" shape="228.14,444.07 226.29,446.20 226.18,448.76 226.05,451.33 224.14,453.50"/>
        <lane id=":12217736860_0_1" index="1" disallow="pedestrian tram rail_urban rail rail_electric rail_fast ship container cable_car subway aircraft wheelchair scooter drone" speed="11.18" length="9.22" shape="228.14,444.07 226.21,445.68 225.38,447.38 224.55,449.07 222.62,450.68"/>
        <lane id=":12217736860_0_2" index="2" disallow="pedestrian tram rail_urban rail rail_electric rail_fast ship container cable_car subway aircraft wheelchair scooter drone" speed="11.18" length="9.22" shape="228.14,444.07 221.10,447.87"/>
    </edge>
    <edge id=":12217736860_3" function="internal">
        <lane id=":12217736860_3_0" index="0" disallow="pedestrian tram rail_urban rail rail_electric rail_fast ship container cable_car subway aircraft wheelchair scooter drone" speed="11.18" length="8.81" shape="218.06,442.24 220.46,441.51 222.34,441.74 224.22,441.98 226.62,441.25"/>
    </edge>
    <edge id=":12231119049_0" function="internal">
        <lane id=":12231119049_0_0" index="0" disallow="pedestrian tram rail_urban rail rail_electric rail_fast ship container cable_car subway aircraft wheelchair scooter drone" speed="11.18" length="8.82" shape="351.47,380.77 349.06,381.50 347.18,381.25 345.31,381.00 342.89,381.72"/>
    </edge>
    <edge id=":12231119049_1" function="internal">
        <lane id=":12231119049_1_0" index="0" disallow="pedestrian tram rail_urban rail rail_electric rail_fast ship container cable_car subway aircraft wheelchair scooter drone" speed="11.18" length="9.21" shape="341.39,378.89 343.25,376.77 343.38,374.22 343.52,371.65 345.43,369.49"/>
        <lane id=":12231119049_1_1" index="1" disallow="pedestrian tram rail_urban rail rail_electric rail_fast ship container cable_car subway aircraft wheelchair scooter drone" speed="11.18" length="9.21" shape="341.39,378.89 343.33,377.30 344.17,375.61 345.01,373.91 346.94,372.31"/>
        <lane id=":12231119049_1_2" index="2" disallow="pedestrian tram rail_urban rail rail_electric rail_fast ship container cable_car subway aircraft wheelchair scooter drone" speed="11.18" length="9.21" shape="341.39,378.89 348.45,375.13"/>
    </edge>
    <edge id=":12989986304_0" function="internal">
        <lane id=":12989986304_0_0" index="0" disallow="tram rail_urban rail rail_electric rail_fast ship container cable_car subway aircraft wheelchair scooter drone" speed="2.78" length="4.67" shape="819.98,596.41 819.51,597.77 818.84,598.37 817.97,598.19 816.88,597.23"/>
    </edge>
    <edge id=":12989986305_0" function="internal">
        <lane id=":12989986305_0_0" index="0" disallow="tram rail_urban rail rail_electric rail_fast ship container cable_car subway aircraft wheelchair scooter drone" speed="5.84" length="8.28" shape="815.86,593.41 814.91,591.01 813.60,589.64 811.95,589.27 809.94,589.93"/>
    </edge>
    <edge id=":12989986305_1" function="internal">
        <lane id=":12989986305_1_0" index="0" disallow="tram rail_urban rail rail_electric rail_fast ship container cable_car subway aircraft wheelchair scooter drone" speed="2.78" length="1.44" shape="815.86,593.41 816.32,592.04"/>
    </edge>
    <edge id=":12989986305_5" function="internal">
        <lane id=":12989986305_5_0" index="0" disallow="tram rail_urban rail rail_electric rail_fast ship container cable_car subway aircraft wheelchair scooter drone" speed="2.78" length="3.23" shape="816.32,592.04 816.99,591.45 817.86,591.63 818.95,592.58"/>
    </edge>
    <edge id=":12989986305_2" function="internal">
        <lane id=":12989986305_2_0" index="0" disallow="tram rail_urban rail rail_electric rail_fast ship container cable_car subway aircraft wheelchair scooter drone" speed="6.98" length="10.29" shape="821.85,583.58 819.93,585.08 818.80,587.07 818.48,589.57 818.95,592.58"/>
    </edge>
    <edge id=":12989986305_3" function="internal">
        <lane id=":12989986305_3_0" index="0" disallow="tram rail_urban rail rail_electric rail_fast ship container cable_car subway aircraft wheelchair scooter drone" speed="11.18" length="13.49" shape="821.85,583.58 809.94,589.93"/>
        <lane id=":12989986305_3_1" index="1" disallow="tram rail_urban rail rail_electric rail_fast ship container cable_car subway aircraft wheelchair scooter drone" speed="11.18" length="13.49" shape="820.34,580.76 808.44,587.10"/>
    </edge>
    <edge id=":12989986305_w0" function="walkingarea">
        <lane id=":12989986305_w0_0" index="0" allow="pedestrian" speed="2.78" length="8.99" width="6.40" shape="814.31,593.83 820.49,592.16 820.10,589.02 820.31,587.73 820.80,586.63 821.56,585.72 822.60,584.99 819.59,579.34 806.74,586.19 809.74,591.84 811.82,591.23 812.65,591.40 813.35,591.89 813.90,592.70"/>
    </edge>
    <edge id=":12989986307_0" function="internal">
        <lane id=":12989986307_0_0" index="0" disallow="tram rail_urban rail rail_electric rail_fast ship container cable_car subway aircraft wheelchair scooter drone" speed="2.78" length="4.99" shape="831.95,653.30 832.84,652.05 833.71,651.65 834.55,652.10 835.36,653.41"/>
    </edge>
    <edge id=":4207957613_0" function="internal">
        <lane id=":4207957613_0_0" index="0" disallow="pedestrian tram rail_urban rail rail_electric rail_fast ship container cable_car subway aircraft wheelchair scooter drone" speed="27.78" length="8.21" shape="394.57,295.33 395.93,297.32 397.17,298.48 398.42,299.63 399.77,301.62"/>
        <lane id=":4207957613_0_1" index="1" disallow="pedestrian tram rail_urban rail rail_electric rail_fast ship container cable_car subway aircraft wheelchair scooter drone" speed="27.78" length="8.21" shape="391.75,296.85 393.11,298.84 394.35,299.99 395.60,301.14 396.95,303.14"/>
        <lane id=":4207957613_0_2" index="2" disallow="pedestrian tram rail_urban rail rail_electric rail_fast ship container cable_car subway aircraft wheelchair scooter drone" speed="27.78" length="8.21" shape="388.94,298.36 390.29,300.36 391.54,301.51 392.78,302.66 394.14,304.65"/>
        <lane id=":4207957613_0_3" index="3" disallow="pedestrian tram rail_urban rail rail_electric rail_fast ship container cable_car subway aircraft wheelchair scooter drone" speed="27.78" length="8.21" shape="388.94,298.36 389.85,300.59 390.13,302.26 390.40,303.94 391.32,306.17"/>
    </edge>
    <edge id=":42428283_0" function="internal">
        <lane id=":42428283_0_0" index="0" disallow="tram rail_urban rail rail_electric rail_fast ship container cable_car subway aircraft wheelchair scooter drone" speed="6.01" length="9.08" shape="683.17,108.17 682.22,105.76 680.78,104.45 678.85,104.25 676.42,105.16"/>
    </edge>
    <edge id=":42428283_1" function="internal">
        <lane id=":42428283_1_0" index="0" disallow="tram rail_urban rail rail_electric rail_fast ship container cable_car subway aircraft wheelchair scooter drone" speed="11.18" length="12.20" shape="683.17,108.17 680.46,96.28"/>
    </edge>
    <edge id=":42428283_2" function="internal">
        <lane id=":42428283_2_0" index="0" disallow="tram rail_urban rail rail_electric rail_fast ship container cable_car subway aircraft wheelchair scooter drone" speed="13.89" length="12.20" shape="687.17,99.40 676.42,105.16"/>
    </edge>
    <edge id=":42428283_3" function="internal">
        <lane id=":42428283_3_0" index="0" disallow="tram rail_urban rail rail_electric rail_fast ship container cable_car subway aircraft wheelchair scooter drone" speed="6.01" length="9.08" shape="687.17,99.40 684.72,100.27 682.79,100.04 681.37,98.71 680.46,96.28"/>
    </edge>
    <edge id=":42428283_w0" function="walkingarea">
        <lane id=":42428283_w0_0" index="0" allow="pedestrian" speed="2.78" length="9.76" width="3.20" shape="681.61,108.54 684.73,107.81 684.58,104.93 684.97,103.69 685.65,102.60 686.63,101.64 687.91,100.82 686.42,97.99 684.36,98.58 683.55,98.40 682.89,97.90 682.38,97.08 682.02,95.94 678.89,96.63 679.00,99.55 678.61,100.80 677.92,101.92 676.93,102.91 675.65,103.75 677.18,106.56 679.24,105.93 680.05,106.10 680.71,106.59 681.23,107.41"/>
    </edge>
    <edge id=":42428287_0" function="internal">
        <lane id=":42428287_0_0" index="0" disallow="tram rail_urban rail rail_electric rail_fast ship container cable_car subway aircraft wheelchair scooter drone" speed="11.18" length="10.18" shape="711.09,191.41 708.30,192.34 706.15,192.25 703.99,192.16 701.20,193.08"/>
        <lane id=":42428287_0_1" index="1" disallow="tram rail_urban rail rail_electric rail_fast ship container cable_car subway aircraft wheelchair scooter drone" speed="11.18" length="10.18" shape="709.57,188.59 706.79,189.52 704.64,189.43 702.48,189.34 699.70,190.26"/>
    </edge>
    <edge id=":42428287_2" function="internal">
        <lane id=":42428287_2_0" index="0" disallow="tram rail_urban rail rail_electric rail_fast ship container cable_car subway aircraft wheelchair scooter drone" speed="7.34" length="2.72" shape="708.05,185.77 705.41,186.44"/>
    </edge>
    <edge id=":42428287_3" function="internal">
        <lane id=":42428287_3_0" index="0" disallow="tram rail_urban rail rail_electric rail_fast ship container cable_car subway aircraft wheelchair scooter drone" speed="3.65" length="1.44" shape="708.05,185.77 706.61,185.64"/>
    </edge>
    <edge id=":42428287_8" function="internal">
        <lane id=":42428287_8_0" index="0" disallow="tram rail_urban rail rail_electric rail_fast ship container cable_car subway aircraft wheelchair scooter drone" speed="7.34" length="11.49" shape="705.41,186.44 705.22,186.49 702.82,185.36 700.85,182.38 699.32,177.55"/>
    </edge>
    <edge id=":42428287_9" function="internal">
        <lane id=":42428287_9_0" index="0" disallow="tram rail_urban rail rail_electric rail_fast ship container cable_car subway aircraft wheelchair scooter drone" speed="3.65" length="3.23" shape="706.61,185.64 705.88,185.12 705.86,184.23 706.53,182.95"/>
    </edge>
    <edge id=":42428287_4" function="internal">
        <lane id=":42428287_4_0" index="0" disallow="tram rail_urban rail rail_electric rail_fast ship container cable_car subway aircraft wheelchair scooter drone" speed="6.88" length="8.16" shape="696.69,184.61 698.27,183.41 699.24,181.84 699.59,179.88 699.32,177.55"/>
    </edge>
    <edge id=":42428287_5" function="internal">
        <lane id=":42428287_5_0" index="0" disallow="tram rail_urban rail rail_electric rail_fast ship container cable_car subway aircraft wheelchair scooter drone" speed="11.18" length="9.46" shape="696.69,184.61 705.02,180.14"/>
        <lane id=":42428287_5_1" index="1" disallow="tram rail_urban rail rail_electric rail_fast ship container cable_car subway aircraft wheelchair scooter drone" speed="11.18" length="9.46" shape="698.19,187.43 706.53,182.95"/>
    </edge>
    <edge id=":42428287_7" function="internal">
        <lane id=":42428287_7_0" index="0" disallow="tram rail_urban rail rail_electric rail_fast ship container cable_car subway aircraft wheelchair scooter drone" speed="3.65" length="1.44" shape="698.19,187.43 699.63,187.57"/>
    </edge>
    <edge id=":42428287_10" function="internal">
        <lane id=":42428287_10_0" index="0" disallow="tram rail_urban rail rail_electric rail_fast ship container cable_car subway aircraft wheelchair scooter drone" speed="3.65" length="3.23" shape="699.63,187.57 700.36,188.09 700.38,188.99 699.70,190.26"/>
    </edge>
    <edge id=":42428287_w0" function="walkingarea">
        <lane id=":42428287_w0_0" index="0" allow="pedestrian" speed="2.78" length="11.89" width="16.00" shape="711.84,192.82 704.26,178.73 702.68,179.20 702.07,179.07 701.56,178.69 701.16,178.07 700.88,177.20 697.76,177.91 697.95,180.21 697.74,181.15 697.34,181.97 696.74,182.65 695.94,183.19 701.95,194.49 703.92,193.71 705.50,193.54 706.90,193.66 708.30,193.78 709.89,193.60"/>
    </edge>
    <edge id=":42428297_0" function="internal">
        <lane id=":42428297_0_0" index="0" disallow="tram rail_urban rail rail_electric rail_fast ship container cable_car subway aircraft wheelchair scooter drone" speed="6.49" length="9.01" shape="771.01,434.21 769.55,432.20 767.81,431.14 765.78,431.04 763.47,431.88"/>
    </edge>
    <edge id=":42428297_1" function="internal">
        <lane id=":42428297_1_0" index="0" disallow="tram rail_urban rail rail_electric rail_fast ship container cable_car subway aircraft wheelchair scooter drone" speed="11.18" length="11.54" shape="773.84,432.72 772.05,429.88 770.49,428.15 768.89,426.44 767.01,423.65"/>
        <lane id=":42428297_1_1" index="1" disallow="tram rail_urban rail rail_electric rail_fast ship container cable_car subway aircraft wheelchair scooter drone" speed="11.18" length="11.54" shape="776.66,431.22 774.86,428.35 773.29,426.61 771.69,424.88 769.79,422.06"/>
        <lane id=":42428297_1_2" index="2" disallow="tram rail_urban rail rail_electric rail_fast ship container cable_car subway aircraft wheelchair scooter drone" speed="11.18" length="11.54" shape="779.49,429.72 777.67,426.83 776.09,425.06 774.48,423.32 772.57,420.47"/>
        <lane id=":42428297_1_3" index="3" disallow="tram rail_urban rail rail_electric rail_fast ship container cable_car subway aircraft wheelchair scooter drone" speed="11.18" length="11.54" shape="782.32,428.22 780.49,425.30 778.90,423.52 777.27,421.75 775.35,418.88"/>
    </edge>
    <edge id=":42428297_5" function="internal">
        <lane id=":42428297_5_0" index="0" disallow="tram rail_urban rail rail_electric rail_fast ship container cable_car subway aircraft wheelchair scooter drone" speed="27.78" length="23.94" shape="784.59,420.62 763.47,431.88"/>
    </edge>
    <edge id=":42428297_6" function="internal">
        <lane id=":42428297_6_0" index="0" disallow="tram rail_urban rail rail_electric rail_fast ship container cable_car subway aircraft wheelchair scooter drone" speed="7.84" length="13.37" shape="784.59,420.62 780.43,422.47 777.04,423.06 774.42,422.40 772.57,420.47"/>
        <lane id=":42428297_6_1" index="1" disallow="tram rail_urban rail rail_electric rail_fast ship container cable_car subway aircraft wheelchair scooter drone" speed="7.06" length="10.65" shape="784.59,420.62 781.66,421.80 779.14,421.90 777.03,420.93 775.35,418.88"/>
    </edge>
    <edge id=":42428297_w0" function="walkingarea">
        <lane id=":42428297_w0_0" index="0" allow="pedestrian" speed="2.78" length="14.86" width="3.20" shape="769.59,434.96 783.73,427.47 783.08,425.30 783.20,424.34 783.62,423.48 784.34,422.71 785.35,422.03 783.84,419.21 780.86,420.28 779.60,420.27 778.49,419.91 777.54,419.18 776.74,418.09 765.62,424.44 766.17,426.63 765.87,427.65 765.20,428.64 764.15,429.57 762.72,430.46 764.21,433.30 766.36,432.65 767.31,432.77 768.16,433.20 768.92,433.93"/>
    </edge>
    <edge id=":42428303_0" function="internal">
        <lane id=":42428303_0_0" index="0" disallow="tram rail_urban rail rail_electric rail_fast ship container cable_car subway aircraft wheelchair scooter drone" speed="6.31" length="9.76" shape="807.40,597.08 806.29,594.33 804.73,592.76 802.74,592.35 800.31,593.12"/>
    </edge>
    <edge id=":42428303_1" function="internal">
        <lane id=":42428303_1_0" index="0" disallow="tram rail_urban rail rail_electric rail_fast ship container cable_car subway aircraft wheelchair scooter drone" speed="11.18" length="9.99" shape="809.76,590.02 807.06,591.17 805.05,591.60 803.04,592.01 800.31,593.12"/>
    </edge>
    <edge id=":42428303_w0" function="walkingarea">
        <lane id=":42428303_w0_0" index="0" allow="pedestrian" speed="2.78" length="8.51" width="3.20" shape="805.85,597.49 808.95,596.68 808.77,594.32 809.06,593.31 809.60,592.41 810.40,591.61 811.46,590.93 808.45,585.28 806.46,586.47 805.09,587.53 804.03,588.52 802.98,589.50 801.60,590.53 799.58,591.69 801.03,594.54 803.15,594.07 804.01,594.38 804.75,595.05 805.37,596.09"/>
    </edge>
    <edge id=":42428305_0" function="internal">
        <lane id=":42428305_0_0" index="0" disallow="tram rail_urban rail rail_electric rail_fast ship container cable_car subway aircraft wheelchair scooter drone" speed="4.47" length="17.65" shape="838.05,672.48 835.92,669.05 832.55,665.88 828.77,662.99 825.42,660.40"/>
    </edge>
    <edge id=":42428305_1" function="internal">
        <lane id=":42428305_1_0" index="0" disallow="tram rail_urban rail rail_electric rail_fast ship container cable_car subway aircraft wheelchair scooter drone" speed="3.62" length="19.92" shape="838.05,672.48 832.01,653.49"/>
    </edge>
    <edge id=":42428305_2" function="internal">
        <lane id=":42428305_2_0" index="0" disallow="tram rail_urban rail rail_electric rail_fast ship container cable_car subway aircraft wheelchair scooter drone" speed="8.48" length="14.10" shape="838.05,672.48 837.78,669.69 838.91,666.99 841.46,664.36 845.42,661.81"/>
    </edge>
    <edge id=":42428305_3" function="internal">
        <lane id=":42428305_3_0" index="0" disallow="tram rail_urban rail rail_electric rail_fast ship container cable_car subway aircraft wheelchair scooter drone" speed="6.11" length="8.86" shape="835.42,653.60 836.53,655.77 838.07,656.92 840.02,657.05 842.41,656.16"/>
    </edge>
    <edge id=":42428305_4" function="internal">
        <lane id=":42428305_4_0" index="0" disallow="tram rail_urban rail rail_electric rail_fast ship container cable_car subway aircraft wheelchair scooter drone" speed="3.62" length="16.41" shape="835.42,653.60 835.48,657.96 833.15,661.02 829.45,662.07 825.42,660.40"/>
    </edge>
    <edge id=":42428305_5" function="internal">
        <lane id=":42428305_5_0" index="0" disallow="tram rail_urban rail rail_electric rail_fast ship container cable_car subway aircraft wheelchair scooter drone" speed="2.78" length="4.99" shape="835.42,653.60 834.53,654.85 833.66,655.25 832.82,654.80 832.01,653.49"/>
    </edge>
    <edge id=":42428305_6" function="internal">
        <lane id=":42428305_6_0" index="0" disallow="tram rail_urban rail rail_electric rail_fast ship container cable_car subway aircraft wheelchair scooter drone" speed="5.85" length="9.12" shape="824.69,667.53 826.83,665.94 827.66,664.23 827.19,662.38 825.42,660.40"/>
    </edge>
    <edge id=":42428305_7" function="internal">
        <lane id=":42428305_7_0" index="0" disallow="tram rail_urban rail rail_electric rail_fast ship container cable_car subway aircraft wheelchair scooter drone" speed="8.34" length="17.38" shape="824.69,667.53 828.96,664.57 831.60,661.25 832.62,657.55 832.01,653.49"/>
    </edge>
    <edge id=":42428305_8" function="internal">
        <lane id=":42428305_8_0" index="0" disallow="tram rail_urban rail rail_electric rail_fast ship container cable_car subway aircraft wheelchair scooter drone" speed="13.89" length="21.02" shape="824.69,667.53 842.41,656.16"/>
        <lane id=":42428305_8_1" index="1" disallow="tram rail_urban rail rail_electric rail_fast ship container cable_car subway aircraft wheelchair scooter drone" speed="13.89" length="21.02" shape="826.22,670.34 843.91,658.98"/>
        <lane id=":42428305_8_2" index="2" disallow="tram rail_urban rail rail_electric rail_fast ship container cable_car subway aircraft wheelchair scooter drone" speed="13.89" length="21.02" shape="826.22,670.34 845.42,661.81"/>
    </edge>
    <edge id=":42428305_w0" function="walkingarea">
        <lane id=":42428305_w0_0" index="0" allow="pedestrian" speed="2.78" length="14.00" width="6.40" shape="836.78,673.70 839.32,671.25 839.52,668.73 840.40,667.42 841.80,666.06 843.73,664.66 846.18,663.22 841.65,654.75 836.86,652.85 829.28,650.37 826.45,659.18 824.38,661.63 825.69,663.27 825.80,664.04 825.54,664.77 824.92,665.46 823.93,666.12 826.99,671.74 829.39,670.63 831.48,670.10 833.27,670.14 834.75,670.76 835.92,671.94"/>
    </edge>
    <edge id=":42428307_0" function="internal">
        <lane id=":42428307_0_0" index="0" disallow="tram rail_urban rail rail_electric rail_fast ship container cable_car subway aircraft wheelchair scooter drone" speed="11.18" length="11.20" shape="861.00,739.94 851.15,745.25"/>
    </edge>
    <edge id=":42428307_1" function="internal">
        <lane id=":42428307_1_0" index="0" disallow="tram rail_urban rail rail_electric rail_fast ship container cable_car subway aircraft wheelchair scooter drone" speed="6.31" length="9.04" shape="861.00,739.94 858.64,740.79 856.64,740.64 854.99,739.48 853.71,737.32"/>
    </edge>
    <edge id=":42428307_w0" function="walkingarea">
        <lane id=":42428307_w0_0" index="0" allow="pedestrian" speed="2.78" length="9.09" width="3.20" shape="861.75,741.35 860.25,738.52 858.12,739.16 857.22,739.01 856.43,738.55 855.75,737.79 855.18,736.71 852.23,737.94 852.76,740.37 852.60,741.41 852.14,742.34 851.41,743.15 850.38,743.84 851.91,746.65"/>
    </edge>
    <edge id=":42430333_0" function="internal">
        <lane id=":42430333_0_0" index="0" disallow="tram rail_urban rail rail_electric rail_fast ship container cable_car subway aircraft wheelchair scooter drone" speed="9.51" length="20.46" shape="888.34,80.76 893.59,78.81 898.21,79.00 902.20,81.35 905.55,85.84"/>
        <lane id=":42430333_0_1" index="1" disallow="tram rail_urban rail rail_electric rail_fast ship container cable_car subway aircraft wheelchair scooter drone" speed="8.29" length="15.31" shape="889.86,83.57 893.79,82.11 897.25,82.26 900.23,84.01 902.74,87.37"/>
        <lane id=":42430333_0_2" index="2" disallow="tram rail_urban rail rail_electric rail_fast ship container cable_car subway aircraft wheelchair scooter drone" speed="7.64" length="12.83" shape="889.86,83.57 892.56,82.78 895.14,83.40 897.60,85.44 899.93,88.90"/>
        <lane id=":42430333_0_3" index="3" disallow="tram rail_urban rail rail_electric rail_fast ship container cable_car subway aircraft wheelchair scooter drone" speed="7.03" length="10.69" shape="889.86,83.57 891.33,83.45 893.03,84.55 894.96,86.88 897.12,90.44"/>
    </edge>
    <edge id=":42430333_4" function="internal">
        <lane id=":42430333_4_0" index="0" disallow="tram rail_urban rail rail_electric rail_fast ship container cable_car subway aircraft wheelchair scooter drone" speed="3.65" length="4.67" shape="889.86,83.57 891.30,83.70 892.03,84.21 892.06,85.11 891.39,86.38"/>
    </edge>
    <edge id=":42430333_w0" function="walkingarea">
        <lane id=":42430333_w0_0" index="0" allow="pedestrian" speed="2.78" length="13.54" width="12.80" shape="895.72,91.20 906.96,85.07 904.52,81.43 901.76,78.87 898.69,77.37 895.30,76.96 891.60,77.62 887.57,79.35 893.68,90.60 894.49,90.35 894.85,90.39 895.17,90.55 895.46,90.82"/>
    </edge>
    <edge id=":42430338_0" function="internal">
        <lane id=":42430338_0_0" index="0" disallow="tram rail_urban rail rail_electric rail_fast ship container cable_car subway aircraft wheelchair scooter drone" speed="7.32" length="11.69" shape="947.55,151.57 945.66,153.21 944.91,155.49 945.29,158.40 946.81,161.94"/>
        <lane id=":42430338_0_1" index="1" disallow="tram rail_urban rail rail_electric rail_fast ship container cable_car subway aircraft wheelchair scooter drone" speed="7.99" length="14.17" shape="947.55,151.57 944.43,153.88 942.80,156.63 942.65,159.83 944.00,163.47"/>
    </edge>
    <edge id=":42430338_2" function="internal">
        <lane id=":42430338_2_0" index="0" disallow="tram rail_urban rail rail_electric rail_fast ship container cable_car subway aircraft wheelchair scooter drone" speed="13.89" length="21.00" shape="947.55,151.57 944.38,153.85 940.99,156.93 936.68,160.51 930.77,164.27"/>