<?xml version="1.0" encoding="UTF-8"?>

<!-- generated on 2026-03-13T11:18:33.902706+05:30 by Eclipse SUMO netconvert 1.26.0
<netconvertConfiguration xmlns:xsi="http://www.w3.org/2001/XMLSchema-instance" xsi:noNamespaceSchemaLocation="http://sumo.dlr.de/xsd/netconvertConfiguration.xsd">

    <input>
        <sumo-net-file value="manhattan.net.xml"/>
    </input>

    <output>
        <plain-output-prefix value="manhattan_plain"/>
        <output.street-names value="true"/>
    </output>

    <processing>
        <geometry.min-radius.fix.railways value="false"/>
        <geometry.avoid-overlap value="false"/>
        <geometry.max-grade.fix value="false"/>
        <offset.disable-normalization value="true"/>
        <lefthand value="0"/>
    </processing>

    <junctions>
        <no-turnarounds value="true"/>
        <junctions.corner-detail value="7"/>
        <junctions.internal-link-detail value="6"/>
        <junctions.limit-turn-speed value="5.50"/>
        <rectangular-lane-cut value="0"/>
    </junctions>

    <pedestrian>
        <walkingareas value="0"/>
    </pedestrian>

</netconvertConfiguration>
-->

<edges version="1.20" xmlns:xsi="http://www.w3.org/2001/XMLSchema-instance" xsi:noNamespaceSchemaLocation="http://sumo.dlr.de/xsd/edges_file.xsd">
    <location netOffset="-584856.12,-4511957.89" convBoundary="0.00,0.00,1576.40,997.28" origBoundary="-74.001970,40.748055,-73.968029,40.775167" projParameter="+proj=utm +zone=18 +ellps=WGS84 +datum=WGS84 +units=m +no_defs"/>

    <edge id="-1136952921#1" from="42428287" to="10598594003" name="West 42nd Street" priority="12" type="highway.primary" numLanes="2" speed="11.18" shape="701.58,187.44 713.09,181.24 717.49,178.85 735.07,169.31 744.54,164.18" disallow="tram rail_urban rail rail_electric rail_fast ship container cable_car subway aircraft wheelchair scooter drone">
        <lane index="0">
            <param key="origId" value="1136952921"/>
        </lane>
        <lane index="1">
            <neigh lane="1136952921#0_2"/>
            <param key="origId" value="1136952921"/>
        </lane>
    </edge>
    <edge id="-1148593539" from="9201440708" to="593977712" priority="1" type="highway.service" numLanes="1" speed="5.56" shape="275.39,321.86 261.26,329.56 243.69,339.12 226.13,348.68 208.56,358.25 191.00,367.81 173.43,377.37 155.87,386.94 138.30,396.50 120.74,406.06" allow="bus bicycle">
        <lane index="0">
            <neigh lane="1148593539_0"/>
            <param key="origId" value="1148593539"/>
        </lane>
    </edge>
    <edge id="-1148593544" from="9201440705" to="10686429941" priority="1" type="highway.service" numLanes="1" speed="5.56" shape="347.11,281.73 346.94,279.35 345.53,259.40" allow="bus bicycle">
        <lane index="0">
            <neigh lane="1148593544_0"/>
            <param key="origId" value="1148593544"/>
        </lane>
    </edge>
    <edge id="-1320290376#1" from="42437368" to="12217736860" name="West 42nd Street" priority="12" type="highway.primary" numLanes="2" speed="11.18" shape="173.12,471.49 182.63,466.80 185.84,465.08 189.58,463.05 206.26,454.06 223.86,444.56" disallow="pedestrian tram rail_urban rail rail_electric rail_fast ship container cable_car subway aircraft wheelchair scooter drone">
        <lane index="0">
            <param key="origId" value="1320290376"/>
        </lane>
        <lane index="1">
            <neigh lane="1320290376#0_2"/>
            <param key="origId" value="1320290376"/>
        </lane>
    </edge>
    <edge id="-1321771943#1" from="12231119049" to="42435663" name="West 42nd Street" priority="12" type="highway.primary" numLanes="3" speed="11.18" shape="345.68,378.43 351.92,375.09 369.57,365.68 386.38,356.61 403.98,347.11 415.59,341.15" disallow="pedestrian tram rail_urban rail rail_electric rail_fast ship container cable_car subway aircraft wheelchair scooter drone">
        <lane index="0">
            <param key="origId" value="1321771943"/>
        </lane>
        <lane index="1">
            <param key="origId" value="1321771943"/>
        </lane>
        <lane index="2">
            <neigh lane="1321771943#0_1"/>
            <param key="origId" value="1321771943"/>
        </lane>
    </edge>
    <edge id="-1413518738" from="12989986307" to="42428305" priority="2" type="highway.living_street" numLanes="1" speed="2.78" shape="834.30,655.29 834.97,657.29 831.57,665.60" disallow="tram rail_urban rail rail_electric rail_fast ship container cable_car subway aircraft wheelchair scooter drone">
        <lane index="0">
            <neigh lane="1413518738_0"/>
            <param key="origId" value="1413518738"/>
        </lane>
    </edge>
    <edge id="-1413518739#1" from="12989986305" to="12989986304" priority="2" type="highway.living_street" numLanes="1" speed="2.78" shape="815.32,585.25 817.16,592.08 818.43,596.82" disallow="tram rail_urban rail rail_electric rail_fast ship container cable_car subway aircraft wheelchair scooter drone">
        <lane index="0">
            <neigh lane="1413518739#0_0"/>
            <param key="origId" value="1413518739"/>
        </lane>
    </edge>
    <edge id="-167922072#1" from="10598594003" to="42430333" name="West 42nd Street" priority="12" type="highway.primary" numLanes="2" speed="11.18" shape="744.54,164.18 753.96,159.07 771.55,149.54 779.83,145.05 797.41,135.52 814.99,125.99 832.57,116.45 850.16,106.92 867.74,97.39 885.32,87.86 897.56,81.21" disallow="tram rail_urban rail rail_electric rail_fast ship container cable_car subway aircraft wheelchair scooter drone">
        <lane index="0">
            <param key="origId" value="167922072"/>
        </lane>
        <lane index="1">
            <neigh lane="167922072#0_1"/>
            <param key="origId" value="167922072"/>
        </lane>
    </edge>
    <edge id="-167922076#2" from="42437363" to="42428287" name="West 42nd Street" priority="12" type="highway.primary" numLanes="2" speed="11.18" shape="657.07,211.00 667.11,205.81 676.81,200.64 694.46,191.23 701.58,187.44" disallow="tram rail_urban rail rail_electric rail_fast ship container cable_car subway aircraft wheelchair scooter drone">
        <lane index="0">
            <param key="origId" value="167922076"/>
        </lane>
        <lane index="1">
            <neigh lane="167922076#0_1"/>
            <param key="origId" value="167922076"/>
        </lane>
    </edge>
    <edge id="-525729008#5" from="42435663" to="42437363" name="West 42nd Street" priority="12" type="highway.primary" numLanes="2" speed="11.18" shape="415.59,341.15 426.92,335.03 438.54,328.76 456.15,319.28 473.76,309.79 491.36,300.30 508.97,290.81 523.61,282.92 532.23,278.28 539.41,274.41 541.17,273.46 558.78,263.97 576.39,254.48 593.99,245.00 611.60,235.51 617.22,232.48 634.83,222.99 646.82,216.51 657.07,211.00" disallow="tram rail_urban rail rail_electric rail_fast ship container cable_car subway aircraft wheelchair scooter drone">
        <lane index="0">
            <param key="origId" value="525729008"/>
        </lane>
        <lane index="1">
            <neigh lane="525729008#0_1"/>
            <param key="origId" value="525729008"/>
        </lane>
    </edge>
    <edge id="-542259076#2" from="12217736860" to="12231119049" name="West 42nd Street" priority="12" type="highway.primary" numLanes="1" speed="11.18" shape="223.86,444.56 233.08,439.59 250.68,430.10 268.29,420.61 285.89,411.11 288.85,409.52 306.23,399.99 323.76,390.37 341.30,380.75 345.68,378.43" disallow="pedestrian tram rail_urban rail rail_electric rail_fast ship container cable_car subway aircraft wheelchair scooter drone">
        <lane index="0">
            <neigh lane="542259076#0_0"/>
            <param key="origId" value="542259076"/>
        </lane>
    </edge>
    <edge id="1021047632#0" from="42445011" to="9417289897" name="9th Avenue" priority="12" type="highway.primary" numLanes="5" speed="27.78" shape="215.09,546.49 211.16,539.52 201.41,522.06 197.81,515.61" spreadType="center" disallow="tram rail_urban rail rail_electric rail_fast ship container cable_car subway aircraft wheelchair scooter drone">
        <lane index="0">
            <param key="origId" value="1021047632"/>
        </lane>
        <lane index="1">
            <param key="origId" value="1021047632"/>
        </lane>
        <lane index="2">
            <param key="origId" value="1021047632"/>
        </lane>
        <lane index="3">
            <param key="origId" value="1021047632"/>
        </lane>
        <lane index="4">
            <param key="origId" value="1021047632"/>
        </lane>
    </edge>
    <edge id="1027189507#0" from="42435677" to="42435680" name="8th Avenue" priority="11" type="highway.secondary" numLanes="2" speed="11.18" shape="607.03,695.89 610.85,703.07 620.35,720.67 629.86,738.26 639.37,755.86 641.49,759.78 644.85,766.01" spreadType="center" disallow="tram rail_urban rail rail_electric rail_fast ship container cable_car subway aircraft wheelchair scooter drone">
        <lane index="0">
            <param key="origId" value="1027189507"/>
        </lane>
        <lane index="1">
            <param key="origId" value="1027189507"/>
        </lane>
    </edge>
    <edge id="1027189508#0" from="9469961217" to="42435677" name="8th Avenue" priority="11" type="highway.secondary" numLanes="4" speed="11.18" shape="589.19,662.45 598.59,680.11 604.12,690.49 607.03,695.89" spreadType="center" disallow="tram rail_urban rail rail_electric rail_fast ship container cable_car subway aircraft wheelchair scooter drone">
        <lane index="0">
            <param key="origId" value="1027189508"/>
        </lane>
        <lane index="1">
            <param key="origId" value="1027189508"/>
        </lane>
        <lane index="2">
            <param key="origId" value="1027189508"/>
        </lane>
        <lane index="3">
            <param key="origId" value="1027189508"/>
        </lane>
    </edge>
    <edge id="1031879418#0" from="2351532388" to="9509518365" name="West 40th Street" priority="3" type="highway.residential" numLanes="2" speed="13.89" shape="105.58,323.45 107.33,322.49 124.59,313.21 129.43,310.61 147.04,301.13 164.65,291.65 182.26,282.17 199.87,272.69 211.49,266.44" spreadType="center" disallow="pedestrian tram rail_urban rail rail_electric rail_fast ship container cable_car subway aircraft wheelchair scooter drone">
        <lane index="0">
            <param key="origId" value="1031879418"/>
        </lane>
        <lane index="1">
            <param key="origId" value="1031879418"/>
        </lane>
    </edge>
    <edge id="1049845754#0" from="8669764313" to="5849918504" name="West 43rd Street" priority="3" type="highway.residential" numLanes="3" speed="13.89" shape="534.23,374.79 516.65,384.32 499.07,393.86 481.48,403.39 467.29,411.08 456.53,416.92" spreadType="center" disallow="tram rail_urban rail rail_electric rail_fast ship container cable_car subway aircraft wheelchair scooter drone">
        <lane index="0">
            <param key="origId" value="1049845754"/>
        </lane>
        <lane index="1">
            <param key="origId" value="1049845754"/>
        </lane>
        <lane index="2">
            <param key="origId" value="1049845754"/>
        </lane>
    </edge>
    <edge id="1051744070#0" from="8318633104" to="42430347" name="West 46th Street" priority="11" type="highway.secondary" numLanes="2" speed="27.78" shape="1013.51,386.45 1031.11,376.96 1040.01,372.17 1051.66,365.90" spreadType="center" disallow="tram rail_urban rail rail_electric rail_fast ship container cable_car subway aircraft wheelchair scooter drone">
        <lane index="0">
            <param key="origId" value="1051744070"/>
        </lane>
        <lane index="1">
            <param key="origId" value="1051744070"/>
        </lane>
    </edge>
    <edge id="1051744778#0" from="9665064785" to="42432703" name="West 45th Street" priority="11" type="highway.secondary" numLanes="2" speed="27.78" shape="318.93,671.21 301.99,680.35 290.45,686.30" spreadType="center" disallow="tram rail_urban rail rail_electric rail_fast ship container cable_car subway aircraft wheelchair scooter drone">
        <lane index="0">
            <param key="origId" value="1051744778"/>
        </lane>
        <lane index="1">
            <param key="origId" value="1051744778"/>
        </lane>
    </edge>
    <edge id="1051745205#0" from="9665064838" to="42432585" name="West 49th Street" priority="11" type="highway.secondary" numLanes="3" speed="27.78" shape="964.77,684.25 947.16,693.73 933.72,700.96 925.10,705.61" spreadType="center" disallow="tram rail_urban rail rail_electric rail_fast ship container cable_car subway aircraft wheelchair scooter drone">
        <lane index="0">
            <param key="origId" value="1051745205"/>
        </lane>
        <lane index="1">
            <param key="origId" value="1051745205"/>
        </lane>
        <lane index="2">
            <param key="origId" value="1051745205"/>
        </lane>
    </edge>
    <edge id="1051846230#0" from="9666047678" to="42443556" name="West 44th Street" priority="3" type="highway.residential" numLanes="2" speed="13.89" shape="1206.35,102.47 1223.96,92.99 1239.64,84.54 1250.08,78.72" spreadType="center" disallow="tram rail_urban rail rail_electric rail_fast ship container cable_car subway aircraft wheelchair scooter drone">
        <lane index="0">
            <param key="origId" value="1051846230"/>
        </lane>
        <lane index="1">
            <param key="origId" value="1051846230"/>
        </lane>
    </edge>
    <edge id="1061622295#0" from="42432693" to="9753722444" name="West 45th Street" priority="11" type="highway.secondary" numLanes="1" speed="27.78" shape="1287.54,149.17 1277.00,154.99 1259.43,164.53 1242.56,173.68" spreadType="center" disallow="tram rail_urban rail rail_electric rail_fast ship container cable_car subway aircraft wheelchair scooter drone">
        <lane index="0">
            <param key="origId" value="1061622295"/>
        </lane>
    </edge>
    <edge id="1106482765#0" from="42443811" to="42452353" name="East 47th Street" priority="3" type="highway.residential" numLanes="1" speed="13.89" shape="1576.40,173.46 1568.54,177.77 1550.99,187.37 1533.45,196.97 1515.90,206.58 1508.72,210.51 1499.97,215.30 1491.30,220.03 1473.69,229.52 1456.08,239.00 1438.48,248.49 1420.87,257.97 1403.26,267.46 1385.65,276.94 1373.58,283.44 1364.64,288.40" spreadType="center" disallow="tram rail_urban rail rail_electric rail_fast ship container cable_car subway aircraft wheelchair scooter drone">
        <lane index="0">
            <param key="origId" value="1106482765"/>
        </lane>
    </edge>
    <edge id="1117867028" from="42439984" to="42430342" name="West 44th Street" priority="3" type="highway.residential" numLanes="1" speed="13.89" shape="734.51,356.92 744.04,351.89 747.12,350.24 750.06,348.66 758.66,344.04 761.80,342.36 779.40,332.85 796.99,323.33 814.58,313.82 832.18,304.31 849.77,294.80 867.36,285.29 884.96,275.77 901.87,266.63 919.46,257.12 937.05,247.61 954.65,238.09 965.13,232.42 976.21,226.46" spreadType="center" disallow="tram rail_urban rail rail_electric rail_fast ship container cable_car subway aircraft wheelchair scooter drone">
        <lane index="0">
            <param key="origId" value="1117867028 1117867029 1117867029 1117867029 226041026"/>
        </lane>
    </edge>
    <edge id="1117867038#0" from="42430344" to="42428297" name="West 45th Street" priority="11" type="highway.secondary" numLanes="1" speed="27.78" shape="1013.79,296.74 1003.10,302.51 985.51,312.02 967.91,321.53 950.32,331.04 948.56,331.99 931.12,341.42 913.53,350.93 895.94,360.44 878.34,369.96 860.75,379.47 843.16,388.98 833.94,393.96 816.34,403.47 798.74,412.97 787.71,418.92 783.95,420.97 782.05,422.02 774.07,426.32" spreadType="center" disallow="tram rail_urban rail rail_electric rail_fast ship container cable_car subway aircraft wheelchair scooter drone">
        <lane index="0">
            <param key="origId" value="1117867038 1117867038 1117867038 1117867041 1117867041 1117867040"/>
        </lane>
    </edge>
    <edge id="1117867040#1" from="42428297" to="42432700" name="West 45th Street" priority="11" type="highway.secondary" numLanes="1" speed="27.78" shape="774.07,426.32 764.23,431.47 761.31,433.04 757.21,435.24 739.58,444.68 721.95,454.12 715.15,457.76 697.51,467.18 679.87,476.60 672.57,480.49 654.96,489.98 637.35,499.46 619.74,508.94 602.13,518.43 584.53,527.91 566.92,537.39 549.31,546.88 542.53,550.53 531.78,556.32" spreadType="center" disallow="tram rail_urban rail rail_electric rail_fast ship container cable_car subway aircraft wheelchair scooter drone">
        <lane index="0">
            <param key="origId" value="1117867040 1117867039 1117867039 46522008 46522008"/>
        </lane>
    </edge>
    <edge id="1136952921#0" from="10598594003" to="42428287" name="West 42nd Street" priority="12" type="highway.primary" numLanes="3" speed="11.18" shape="744.54,164.18 735.07,169.31 717.49,178.85 713.09,181.24 701.58,187.44" disallow="tram rail_urban rail rail_electric rail_fast ship container cable_car subway aircraft wheelchair scooter drone">
        <lane index="0">
            <param key="origId" value="1136952921"/>
        </lane>
        <lane index="1">
            <param key="origId" value="1136952921"/>
        </lane>
        <lane index="2">
            <neigh lane="-1136952921#1_1"/>
            <param key="origId" value="1136952921"/>
        </lane>
    </edge>
    <edge id="1148593539" from="593977712" to="9201440708" priority="1" type="highway.service" numLanes="1" speed="5.56" shape="120.74,406.06 138.30,396.50 155.87,386.94 173.43,377.37 191.00,367.81 208.56,358.25 226.13,348.68 243.69,339.12 261.26,329.56 275.39,321.86" allow="bus bicycle">
        <lane index="0">
            <neigh lane="-1148593539_0"/>
            <param key="origId" value="1148593539"/>
        </lane>
    </edge>
    <edge id="1148593540#0" from="9201440708" to="9201440705" priority="1" type="highway.service" numLanes="1" speed="5.56" shape="275.39,321.86 285.19,339.29 292.10,351.57 299.99,365.60 317.46,355.86 334.92,346.11 352.39,336.37 369.85,326.62 371.75,325.56 361.95,308.13 352.15,290.69 347.11,281.73" spreadType="center" allow="bus bicycle">
        <lane index="0">
            <param key="origId" value="1148593540"/>
        </lane>
    </edge>
    <edge id="1148593544" from="10686429941" to="9201440705" priority="1" type="highway.service" numLanes="1" speed="5.56" shape="345.53,259.40 346.94,279.35 347.11,281.73" allow="bus bicycle">
        <lane index="0">
            <neigh lane="-1148593544_0"/>
            <param key="origId" value="1148593544"/>
        </lane>
    </edge>
    <edge id="1198594026#0" from="5849918504" to="42435671" name="8th Avenue" priority="11" type="highway.secondary" numLanes="3" speed="11.18" shape="456.53,416.92 460.46,424.18 469.97,441.78 479.47,459.37 488.98,476.97 490.93,480.59 494.00,486.25" spreadType="center" disallow="tram rail_urban rail rail_electric rail_fast ship container cable_car subway aircraft wheelchair scooter drone">
        <lane index="0">
            <param key="origId" value="1198594026"/>
        </lane>
        <lane index="1">
            <param key="origId" value="1198594026"/>
        </lane>
        <lane index="2">
            <param key="origId" value="1198594026"/>
        </lane>
    </edge>
    <edge id="1198594027#0" from="42435671" to="42439984" name="West 44th Street" priority="3" type="highway.residential" numLanes="1" speed="13.89" shape="494.00,486.25 504.27,480.72 521.88,471.23 539.49,461.74 557.09,452.26 574.70,442.77 592.31,433.28 609.91,423.79 627.52,414.31 634.48,410.55 652.10,401.08 669.71,391.61 687.33,382.14 704.95,372.67 719.80,364.68 721.57,363.74 725.65,361.61 728.00,360.36 734.51,356.92" spreadType="center" disallow="tram rail_urban rail rail_electric rail_fast ship container cable_car subway aircraft wheelchair scooter drone">
        <lane index="0">
            <param key="origId" value="1198594027 1198594027 1117867027 1117867027 1117867026"/>
        </lane>
    </edge>
    <edge id="1198594028#0" from="42432700" to="9665064785" name="West 45th Street" priority="11" type="highway.secondary" numLanes="1" speed="27.78" shape="531.78,556.32 519.49,562.95 501.89,572.45 484.29,581.95 466.69,591.45 449.09,600.95 431.49,610.45 413.89,619.95 396.29,629.45 378.69,638.95 361.09,648.45 343.49,657.95 325.90,667.45 318.93,671.21" spreadType="center" disallow="tram rail_urban rail rail_electric rail_fast ship container cable_car subway aircraft wheelchair scooter drone">
        <lane index="0">
            <param key="origId" value="1198594028"/>
        </lane>
    </edge>
    <edge id="1198594029#0" from="11191334801" to="42432700" name="8th Avenue" priority="11" type="highway.secondary" numLanes="3" speed="11.18" shape="511.35,518.44 520.84,536.04 528.36,549.98 531.78,556.32" spreadType="center" disallow="tram rail_urban rail rail_electric rail_fast ship container cable_car subway aircraft wheelchair scooter drone">
        <lane index="0">
            <param key="origId" value="1198594029"/>
        </lane>
        <lane index="1">
            <param key="origId" value="1198594029"/>
        </lane>
        <lane index="2">
            <param key="origId" value="1198594029"/>
        </lane>
    </edge>
    <edge id="1198594030#0" from="42435675" to="9469961217" name="8th Avenue" priority="11" type="highway.secondary" numLanes="3" speed="11.18" shape="569.57,626.41 573.47,633.58 583.03,651.15 589.19,662.45" spreadType="center" disallow="tram rail_urban rail rail_electric rail_fast ship container cable_car subway aircraft wheelchair scooter drone">
        <lane index="0">
            <param key="origId" value="1198594030"/>
        </lane>
        <lane index="1">
            <param key="origId" value="1198594030"/>
        </lane>
        <lane index="2">
            <param key="origId" value="1198594030"/>
        </lane>
    </edge>
    <edge id="1207834766#0" from="42435671" to="11191334801" name="8th Avenue" priority="11" type="highway.secondary" numLanes="2" speed="11.18" shape="494.00,486.25 497.57,492.88 507.06,510.48 511.35,518.44" spreadType="center" disallow="tram rail_urban rail rail_electric rail_fast ship container cable_car subway aircraft wheelchair scooter drone">
        <lane index="0">
            <param key="origId" value="1207834766"/>
        </lane>
        <lane index="1">
            <param key="origId" value="1207834766"/>
        </lane>
    </edge>
    <edge id="1211049194#0" from="42430358" to="42430361" name="6th Avenue" priority="11" type="highway.secondary" numLanes="4" speed="27.78" shape="1203.39,647.48 1211.87,663.41 1214.56,668.45 1224.03,686.06 1233.51,703.68 1236.83,709.84 1240.20,716.10" spreadType="center" disallow="tram rail_urban rail rail_electric rail_fast ship container cable_car subway aircraft wheelchair scooter drone">
        <lane index="0">
            <param key="origId" value="1211049194 1211049194 1211049193"/>
        </lane>
        <lane index="1">
            <param key="origId" value="1211049194 1211049194 1211049193"/>
        </lane>
        <lane index="2">
            <param key="origId" value="1211049194 1211049194 1211049193"/>
        </lane>
        <lane index="3">
            <param key="origId" value="1211049194 1211049194 1211049193"/>
        </lane>
    </edge>
    <edge id="125479721#0" from="42435654" to="42435657" name="8th Avenue" priority="11" type="highway.secondary" numLanes="4" speed="27.78" shape="301.06,128.50 304.65,135.20 314.11,152.81 323.58,170.43 333.04,188.05 335.07,191.81 338.19,197.61" spreadType="center" disallow="tram rail_urban rail rail_electric rail_fast ship container cable_car subway aircraft wheelchair scooter drone">
        <lane index="0">
            <param key="origId" value="125479721"/>
        </lane>
        <lane index="1">
            <param key="origId" value="125479721"/>
        </lane>
        <lane index="2">
            <param key="origId" value="125479721"/>
        </lane>
        <lane index="3">
            <param key="origId" value="125479721"/>
        </lane>
    </edge>
    <edge id="125480075#0" from="42435663" to="5849918504" name="8th Avenue" priority="11" type="highway.secondary" numLanes="4" speed="11.18" shape="415.59,341.15 421.47,352.02 430.98,369.62 440.48,387.21 445.02,395.61 452.92,410.24 456.53,416.92" spreadType="center" disallow="tram rail_urban rail rail_electric rail_fast ship container cable_car subway aircraft wheelchair scooter drone">
        <lane index="0">
            <param key="origId" value="125480075 1027181007"/>
        </lane>
        <lane index="1">
            <param key="origId" value="125480075 1027181007"/>
        </lane>
        <lane index="2">
            <param key="origId" value="125480075 1027181007"/>
        </lane>
        <lane index="3">
            <param key="origId" value="125480075 1027181007"/>
        </lane>
    </edge>
    <edge id="127693103#0" from="42430333" to="42430338" name="6th Avenue" priority="11" type="highway.secondary" numLanes="4" speed="27.78" shape="897.56,81.21 903.41,91.94 904.73,94.38 914.26,111.96 923.79,129.55 933.32,147.13 934.70,149.66 938.40,156.51" spreadType="center" disallow="tram rail_urban rail rail_electric rail_fast ship container cable_car subway aircraft wheelchair scooter drone">
        <lane index="0">
            <param key="origId" value="127693103"/>
        </lane>
        <lane index="1">
            <param key="origId" value="127693103"/>
        </lane>
        <lane index="2">
            <param key="origId" value="127693103"/>
        </lane>
        <lane index="3">
            <param key="origId" value="127693103"/>
        </lane>
    </edge>
    <edge id="127693103#3" from="42430338" to="42430342" name="6th Avenue" priority="11" type="highway.secondary" numLanes="4" speed="27.78" shape="938.40,156.51 941.93,163.01 951.44,180.61 960.95,198.20 970.45,215.80 972.75,220.04 976.21,226.46" spreadType="center" disallow="tram rail_urban rail rail_electric rail_fast ship container cable_car subway aircraft wheelchair scooter drone">
        <lane index="0">
            <param key="origId" value="127693103"/>
        </lane>
        <lane index="1">
            <param key="origId" value="127693103"/>
        </lane>
        <lane index="2">
            <param key="origId" value="127693103"/>
        </lane>
        <lane index="3">
            <param key="origId" value="127693103"/>
        </lane>
    </edge>
    <edge id="1320234484#0" from="42432585" to="42428307" name="West 49th Street" priority="11" type="highway.secondary" numLanes="1" speed="11.18" shape="925.10,705.61 913.08,712.05 895.92,721.34 878.27,730.74 868.93,735.72 855.92,742.64" spreadType="center" disallow="tram rail_urban rail rail_electric rail_fast ship container cable_car subway aircraft wheelchair scooter drone">
        <lane index="0">
            <param key="origId" value="1320234484"/>
        </lane>
    </edge>
    <edge id="1320234484#3" from="42428307" to="12217512992" name="West 49th Street" priority="11" type="highway.secondary" numLanes="1" speed="11.18" shape="855.92,742.64 849.46,746.17 831.90,755.75 819.06,762.75 805.25,770.20 787.64,779.68 779.55,784.04 761.94,793.53 744.34,803.02 726.73,812.50 709.12,821.99 693.93,830.17 682.16,836.52 673.41,841.23 670.11,843.01 652.51,852.49 645.17,856.44 627.57,865.93 609.96,875.42 592.35,884.91 581.69,890.65 564.09,900.14 552.60,906.32 534.99,915.81 530.15,918.42 512.54,927.91 494.94,937.40 485.95,942.24" spreadType="center" disallow="tram rail_urban rail rail_electric rail_fast ship container cable_car subway aircraft wheelchair scooter drone">
        <lane index="0">
            <param key="origId" value="1320234484"/>
        </lane>
    </edge>
    <edge id="1320290376#0" from="12217736860" to="42437368" name="West 42nd Street" priority="12" type="highway.primary" numLanes="3" speed="11.18" shape="223.86,444.56 206.26,454.06 189.58,463.05 185.84,465.08 182.63,466.80 173.12,471.49" disallow="pedestrian tram rail_urban rail rail_electric rail_fast ship container cable_car subway aircraft wheelchair scooter drone">
        <lane index="0">
            <param key="origId" value="1320290376"/>
        </lane>
        <lane index="1">
            <param key="origId" value="1320290376"/>
        </lane>
        <lane index="2">
            <neigh lane="-1320290376#1_1"/>
            <param key="origId" value="1320290376"/>
        </lane>
    </edge>
    <edge id="1321771943#0" from="42435663" to="12231119049" name="West 42nd Street" priority="12" type="highway.primary" numLanes="2" speed="11.18" shape="415.59,341.15 403.98,347.11 386.38,356.61 369.57,365.68 351.92,375.09 345.68,378.43" disallow="pedestrian tram rail_urban rail rail_electric rail_fast ship container cable_car subway aircraft wheelchair scooter drone">
        <lane index="0">
            <param key="origId" value="1321771943"/>
        </lane>
        <lane index="1">
            <neigh lane="-1321771943#1_2"/>
            <param key="origId" value="1321771943"/>
        </lane>
    </edge>
    <edge id="1413159922#0" from="42428307" to="42428305" name="Broadway" priority="2" type="highway.living_street" numLanes="1" speed="4.47" shape="855.92,742.64 853.42,736.64 846.31,717.95 845.30,715.29 849.54,705.67 843.00,686.77 837.81,671.79 831.57,665.60" spreadType="center" disallow="tram rail_urban rail rail_electric rail_fast ship container cable_car subway aircraft wheelchair scooter drone">
        <lane index="0">
            <param key="origId" value="1413159922 1413159922 1413159923 972926362"/>
        </lane>
    </edge>