<additional><laneAreaDetector id="cctv_signal_queue_01" lane="-1148593539_0" pos="130.53" length="10" freq="60" file="outputs/detector_output.xml" /><laneAreaDetector id="cctv_midblock_02" lane="-1148593539_0" pos="10" length="10" freq="60" file="outputs/detector_output.xml" /><laneAreaDetector id="cctv_signal_queue_03" lane="-1320290376#1_0" pos="13.479999999999997" length="10" freq="60" file="outputs/detector_output.xml" /><laneAreaDetector id="cctv_midblock_04" lane="-1320290376#1_0" pos="10" length="10" freq="60" file="outputs/detector_output.xml" /><busStop id="bus_stop_1" lane="-1320290376#1_0" startPos="0" endPos="15" /><parkingArea id="auto_stand_1" lane="-1320290376#1_0" startPos="15" endPos="30" roadsideCapacity="3" /><laneAreaDetector id="cctv_signal_queue_05" lane="-1321771943#1_0" pos="24.659999999999997" length="10" freq="60" file="outputs/detector_output.xml" /><laneAreaDetector id="cctv_midblock_06" lane="-1321771943#1_0" pos="10" length="10" freq="60" file="outputs/detector_output.xml" /><busStop id="bus_stop_2" lane="-1321771943#1_0" startPos="0" endPos="15" /><parkingArea id="auto_stand_2" lane="-1321771943#1_0" startPos="15" endPos="30" roadsideCapacity="3" /><laneAreaDetector id="cctv_signal_queue_07" lane="-167922072#1_0" pos="122.18" length="10" freq="60" file="outputs/detector_output.xml" /><laneAreaDetector id="cctv_midblock_08" lane="-167922072#1_0" pos="10" length="10" freq="60" file="outputs/detector_output.xml" /><busStop id="bus_stop_3" lane="-167922072#1_0" startPos="0" endPos="15" /><parkingArea id="auto_stand_3" lane="-167922072#1_0" startPos="15" endPos="30" roadsideCapacity="3" /><laneAreaDetector id="cctv_signal_queue_09" lane="-525729008#5_0" pos="213.52" length="10" freq="60" file="outputs/detector_output.xml" /><laneAreaDetector id="cctv_midblock_10" lane="-525729008#5_0" pos="10" length="10" freq="60" file="outputs/detector_output.xml" /><busStop id="bus_stop_4" lane="-525729008#5_0" startPos="0" endPos="15" /><parkingArea id="auto_stand_4" lane="-525729008#5_0" startPos="15" endPos="30" roadsideCapacity="3" /><laneAreaDetector id="cctv_signal_queue_11" lane="-542259076#2_0" pos="90.61000000000001" length="10" freq="60" file="outputs/detector_output.xml" /><laneAreaDetector id="cctv_midblock_12" lane="-542259076#2_0" pos="10" length="10" freq="60" file="outputs/detector_output.xml" /><busStop id="bus_stop_5" lane="-542259076#2_0" startPos="0" endPos="15" /><parkingArea id="auto_stand_5" lane="-542259076#2_0" startPos="15" endPos="30" roadsideCapacity="3" /><laneAreaDetector id="cctv_signal_queue_13" lane="1027189507#0_0" pos="30.879999999999995" length="10" freq="60" file="outputs/detector_output.xml" /><laneAreaDetector id="cctv_midblock_14" lane="1027189507#0_0" pos="10" length="10" freq="60" file="outputs/detector_output.xml" /><busStop id="bus_stop_6" lane="1027189507#0_0" startPos="0" endPos="15" /><parkingArea id="auto_stand_6" lane="1027189507#0_0" startPos="15" endPos="30" roadsideCapacity="3" /><laneAreaDetector id="cctv_signal_queue_15" lane="1031879418#0_0" pos="76.28" length="10" freq="60" file="outputs/detector_output.xml" /><laneAreaDetector id="cctv_midblock_16" lane="1031879418#0_0" pos="10" length="10" freq="60" file="outputs/detector_output.xml" /><parkingArea id="auto_stand_7" lane="1031879418#0_0" startPos="10" endPos="30" roadsideCapacity="3" /><laneAreaDetector id="cctv_signal_queue_17" lane="1049845754#0_0" pos="33.980000000000004" length="10" freq="60" file="outputs/detector_output.xml" /><laneAreaDetector id="cctv_midblock_18" lane="1049845754#0_0" pos="10" length="10" freq="60" file="outputs/detector_output.xml" /><parkingArea id="auto_stand_8" lane="1049845754#0_0" startPos="10" endPos="30" roadsideCapacity="3" /><laneAreaDetector id="cctv_signal_queue_19" lane="1106482765#0_0" pos="190.58" length="10" freq="60" file="outputs/detector_output.xml" /><laneAreaDetector id="cctv_midblock_20" lane="1106482765#0_0" pos="10" length="10" freq="60" file="outputs/detector_output.xml" /><parkingArea id="auto_stand_9" lane="1106482765#0_0" startPos="10" endPos="30" roadsideCapacity="3" /><laneAreaDetector id="cctv_signal_queue_21" lane="1117867028_0" pos="213.82" length="10" freq="60" file="outputs/detector_output.xml" /><laneAreaDetector id="cctv_midblock_22" lane="1117867028_0" pos="10" length="10" freq="60" file="outputs/detector_output.xml" /><parkingArea id="auto_stand_10" lane="1117867028_0" startPos="10" endPos="30" roadsideCapacity="3" /><laneAreaDetector id="cctv_signal_queue_23" lane="1117867038#0_0" pos="210.13" length="10" freq="60" file="outputs/detector_output.xml" /><laneAreaDetector id="cctv_midblock_24" lane="1117867038#0_0" pos="10" length="10" freq="60" file="outputs/detector_output.xml" /><busStop id="bus_stop_7" lane="1117867038#0_0" startPos="0" endPos="15" /><parkingArea id="auto_stand_11" lane="1117867038#0_0" startPos="15" endPos="30" roadsideCapacity="3" /><laneAreaDetector id="cctv_signal_queue_25" lane="1117867040#1_0" pos="214.19" length="10" freq="60" file="outputs/detector_output.xml" /><laneAreaDetector id="cctv_midblock_26" lane="1117867040#1_0" pos="10" length="10" freq="60" file="outputs/detector_output.xml" /><busStop id="bus_stop_8" lane="1117867040#1_0" startPos="0" endPos="15" /><parkingArea id="auto_stand_12" lane="1117867040#1_0" startPos="15" endPos="30" roadsideCapacity="3" /><laneAreaDetector id="cctv_signal_queue_27" lane="1148593539_0" pos="130.53" length="10" freq="60" file="outputs/detector_output.xml" /><laneAreaDetector id="cctv_midblock_28" lane="1148593539_0" pos="10" length="10" freq="60" file="outputs/detector_output.xml" /><laneAreaDetector id="cctv_signal_queue_29" lane="1148593540#0_0" pos="127.36000000000001" length="10" freq="60" file="outputs/detector_output.xml" /><laneAreaDetector id="cctv_midblock_30" lane="1148593540#0_0" pos="10" length="10" freq="60" file="outputs/detector_output.xml" /><laneAreaDetector id="cctv_signal_queue_31" lane="1198594026#0_0" pos="24.409999999999997" length="10" freq="60" file="outputs/detector_output.xml" /><laneAreaDetector id="cctv_midblock_32" lane="1198594026#0_0" pos="10" length="10" freq="60" file="outputs/detector_output.xml" /><busStop id="bus_stop_9" lane="1198594026#0_0" startPos="0" endPos="15" /><parkingArea id="auto_stand_13" lane="1198594026#0_0" startPos="15" endPos="30" roadsideCapacity="3" /><laneAreaDetector id="cctv_signal_queue_33" lane="1198594027#0_0" pos="213.93" length="10" freq="60" file="outputs/detector_output.xml" /><laneAreaDetector id="cctv_midblock_34" lane="1198594027#0_0" pos="10" length="10" freq="60" file="outputs/detector_output.xml" /><parkingArea id="auto_stand_14" lane="1198594027#0_0" startPos="10" endPos="30" roadsideCapacity="3" /><laneAreaDetector id="cctv_signal_queue_35" lane="1198594028#0_0" pos="189.08" length="10" freq="60" file="outputs/detector_output.xml" /><laneAreaDetector id="cctv_midblock_36" lane="1198594028#0_0" pos="10" length="10" freq="60" file="outputs/detector_output.xml" /><busStop id="bus_stop_10" lane="1198594028#0_0" startPos="0" endPos="15" /><parkingArea id="auto_stand_15" lane="1198594028#0_0" startPos="15" endPos="30" roadsideCapacity="3" /><laneAreaDetector id="cctv_signal_queue_37" lane="1211049194#0_0" pos="23.560000000000002" length="10" freq="60" file="outputs/detector_output.xml" /><laneAreaDetector id="cctv_midblock_38" lane="1211049194#0_0" pos="10" length="10" freq="60" file="outputs/detector_output.xml" /><busStop id="bus_stop_11" lane="1211049194#0_0" startPos="0" endPos="15" /><parkingArea id="auto_stand_16" lane="1211049194#0_0" startPos="15" endPos="30" roadsideCapacity="3" /><laneAreaDetector id="cctv_signal_queue_39" lane="125479721#0_0" pos="24.150000000000006" length="10" freq="60" file="outputs/detector_output.xml" /><laneAreaDetector id="cctv_midblock_40" lane="125479721#0_0" pos="10" length="10" freq="60" file="outputs/detector_output.xml" /><busStop id="bus_stop_12" lane="125479721#0_0" startPos="0" endPos="15" /><parkingArea id="auto_stand_17" lane="125479721#0_0" startPos="15" endPos="30" roadsideCapacity="3" /><laneAreaDetector id="cctv_signal_queue_41" lane="125480075#0_0" pos="26.909999999999997" length="10" freq="60" file="outputs/detector_output.xml" /><laneAreaDetector id="cctv_midblock_42" lane="125480075#0_0" pos="10" length="10" freq="60" file="outputs/detector_output.xml" /><busStop id="bus_stop_13" lane="125480075#0_0" startPos="0" endPos="15" /><parkingArea id="auto_stand_18" lane="125480075#0_0" startPos="15" endPos="30" roadsideCapacity="3" /><laneAreaDetector id="cctv_signal_queue_43" lane="127693103#0_0" pos="28.97" length="10" freq="60" file="outputs/detector_output.xml" /><laneAreaDetector id="cctv_midblock_44" lane="127693103#0_0" pos="10" length="10" freq="60" file="outputs/detector_output.xml" /><busStop id="bus_stop_14" lane="127693103#0_0" startPos="0" endPos="15" /><parkingArea id="auto_stand_19" lane="127693103#0_0" startPos="15" endPos="30" roadsideCapacity="3" /><laneAreaDetector id="cctv_signal_queue_45" lane="127693103#3_0" pos="25.11" length="10" freq="60" file="outputs/detector_output.xml" /><laneAreaDetector id="cctv_midblock_46" lane="127693103#3_0" pos="10" length="10" freq="60" file="outputs/detector_output.xml" /><busStop id="bus_stop_15" lane="127693103#3_0" startPos="0" endPos="15" /><parkingArea id="auto_stand_20" lane="127693103#3_0" startPos="15" endPos="30" roadsideCapacity="3" /><laneAreaDetector id="cctv_signal_queue_47" lane="1320234484#0_0" pos="23.869999999999997" length="10" freq="60" file="outputs/detector_output.xml" /><laneAreaDetector id="cctv_midblock_48" lane="1320234484#0_0" pos="10" length="10" freq="60" file="outputs/detector_output.xml" /><busStop id="bus_stop_16" lane="1320234484#0_0" startPos="0" endPos="15" /><parkingArea id="auto_stand_21" lane="1320234484#0_0" startPos="15" endPos="30" roadsideCapacity="3" /><laneAreaDetector id="cctv_signal_queue_49" lane="1320234484#3_0" pos="374.94" length="10" freq="60" file="outputs/detector_output.xml" /><laneAreaDetector id="cctv_midblock_50" lane="1320234484#3_0" pos="10" length="10" freq="60" file="outputs/detector_output.xml" /><busStop id="bus_stop_17" lane="1320234484#3_0" startPos="0" endPos="15" /><parkingArea id="auto_stand_22" lane="1320234484#3_0" startPos="15" endPos="30" roadsideCapacity="3" /><laneAreaDetector id="cctv_signal_queue_51" lane="1320290376#0_0" pos="13.479999999999997" length="10" freq="60" file="outputs/detector_output.xml" /><laneAreaDetector id="cctv_midblock_52" lane="1320290376#0_0" pos="10" length="10" freq="60" file="outputs/detector_output.xml" /><busStop id="bus_stop_18" lane="1320290376#0_0" startPos="0" endPos="15" /><parkingArea id="auto_stand_23" lane="1320290376#0_0" startPos="15" endPos="30" roadsideCapacity="3" /><laneAreaDetector id="cctv_signal_queue_53" lane="1321771943#0_0" pos="24.659999999999997" length="10" freq="60" file="outputs/detector_output.xml" /><laneAreaDetector id="cctv_midblock_54" lane="1321771943#0_0" pos="10" length="10" freq="60" file="outputs/detector_output.xml" /><busStop id="bus_stop_19" lane="1321771943#0_0" startPos="0" endPos="15" /><parkingArea id="auto_stand_24" lane="1321771943#0_0" startPos="15" endPos="30" roadsideCapacity="3" /><laneAreaDetector id="cctv_signal_queue_55" lane="1413159922#0_0" pos="29.22" length="10" freq="60" file="outputs/detector_output.xml" /><laneAreaDetector id="cctv_midblock_56" lane="1413159922#0_0" pos="10" length="10" freq="60" file="outputs/detector_output.xml" /><laneAreaDetector id="cctv_signal_queue_57" lane="167922070#0_0" pos="28.659999999999997" length="10" freq="60" file="outputs/detector_output.xml" /><laneAreaDetector id="cctv_midblock_58" lane="167922070#0_0" pos="10" length="10" freq="60" file="outputs/detector_output.xml" /><busStop id="bus_stop_20" lane="167922070#0_0" startPos="0" endPos="15" /><parkingArea id="auto_stand_25" lane="167922070#0_0" startPos="15" endPos="30" roadsideCapacity="3" /><laneAreaDetector id="cctv_signal_queue_59" lane="167922071#0_0" pos="22.299999999999997" length="10" freq="60" file="outputs/detector_output.xml" /><laneAreaDetector id="cctv_midblock_60" lane="167922071#0_0" pos="10" length="10" freq="60" file="outputs/detector_output.xml" /><busStop id="bus_stop_21" lane="167922071#0_0" startPos="0" endPos="15" /><parkingArea id="auto_stand_26" lane="167922071#0_0" startPos="15" endPos="30" roadsideCapacity="3" /><laneAreaDetector id="cctv_signal_queue_61" lane="167922072#0_0" pos="122.18" length="10" freq="60" file="outputs/detector_output.xml" /><laneAreaDetector id="cctv_midblock_62" lane="167922072#0_0" pos="10" length="10" freq="60" file="outputs/detector_output.xml" /><busStop id="bus_stop_22" lane="167922072#0_0" startPos="0" endPos="15" /><parkingArea id="auto_stand_27" lane="167922072#0_0" startPos="15" endPos="30" roadsideCapacity="3" /><laneAreaDetector id="cctv_signal_queue_63" lane="167922073#0_0" pos="214.31" length="10" freq="60" file="outputs/detector_output.xml" /><laneAreaDetector id="cctv_midblock_64" lane="167922073#0_0" pos="10" length="10" freq="60" file="outputs/detector_output.xml" /><parkingArea id="auto_stand_28" lane="167922073#0_0" startPos="10" endPos="30" roadsideCapacity="3" /><laneAreaDetector id="cctv_signal_queue_65" lane="194926846#0_0" pos="211.68" length="10" freq="60" file="outputs/detector_output.xml" /><laneAreaDetector id="cctv_midblock_66" lane="194926846#0_0" pos="10" length="10" freq="60" file="outputs/detector_output.xml" /><laneAreaDetector id="cctv_signal_queue_67" lane="194926847#0_0" pos="161.58" length="10" freq="60" file="outputs/detector_output.xml" /><laneAreaDetector id="cctv_midblock_68" lane="194926847#0_0" pos="10" length="10" freq="60" file="outputs/detector_output.xml" /><parkingArea id="auto_stand_29" lane="194926847#0_0" startPos="10" endPos="30" roadsideCapacity="3" /><laneAreaDetector id="cctv_signal_queue_69" lane="194926851#0_0" pos="28.42" length="10" freq="60" file="outputs/detector_output.xml" /><laneAreaDetector id="cctv_midblock_70" lane="194926851#0_0" pos="10" length="10" freq="60" file="outputs/detector_output.xml" /><busStop id="bus_stop_23" lane="194926851#0_0" startPos="0" endPos="15" /><parkingArea id="auto_stand_30" lane="194926851#0_0" startPos="15" endPos="30" roadsideCapacity="3" /><laneAreaDetector id="cctv_signal_queue_71" lane="195743209#0_0" pos="213.99" length="10" freq="60" file="outputs/detector_output.xml" /><laneAreaDetector id="cctv_midblock_72" lane="195743209#0_0" pos="10" length="10" freq="60" file="outputs/detector_output.xml" /><laneAreaDetector id="cctv_signal_queue_73" lane="195743210_0" pos="187.1" length="10" freq="60" file="outputs/detector_output.xml" /><laneAreaDetector id="cctv_midblock_74" lane="195743210_0" pos="10" length="10" freq="60" file="outputs/detector_output.xml" /><laneAreaDetector id="cctv_signal_queue_75" lane="226041025#0_0" pos="212.77" length="10" freq="60" file="outputs/detector_output.xml" /><laneAreaDetector id="cctv_midblock_76" lane="226041025#0_0" pos="10" length="10" freq="60" file="outputs/detector_output.xml" /><parkingArea id="auto_stand_31" lane="226041025#0_0" startPos="10" endPos="30" roadsideCapacity="3" /><laneAreaDetector id="cctv_signal_queue_77" lane="226041027#0_0" pos="214.89" length="10" freq="60" file="outputs/detector_output.xml" /><laneAreaDetector id="cctv_midblock_78" lane="226041027#0_0" pos="10" length="10" freq="60" file="outputs/detector_output.xml" /><parkingArea id="auto_stand_32" lane="226041027#0_0" startPos="10" endPos="30" roadsideCapacity="3" /><laneAreaDetector id="cctv_signal_queue_79" lane="226041028#0_0" pos="161.85" length="10" freq="60" file="outputs/detector_output.xml" /><laneAreaDetector id="cctv_midblock_80" lane="226041028#0_0" pos="10" length="10" freq="60" file="outputs/detector_output.xml" /><parkingArea id="auto_stand_33" lane="226041028#0_0" startPos="10" endPos="30" roadsideCapacity="3" /><laneAreaDetector id="cctv_signal_queue_81" lane="226041029#0_0" pos="251.01" length="10" freq="60" file="outputs/detector_output.xml" /><laneAreaDetector id="cctv_midblock_82" lane="226041029#0_0" pos="10" length="10" freq="60" file="outputs/detector_output.xml" /><parkingArea id="auto_stand_34" lane="226041029#0_0" startPos="10" endPos="30" roadsideCapacity="3" /><laneAreaDetector id="cctv_signal_queue_83" lane="35027229#0_0" pos="31.230000000000004" length="10" freq="60" file="outputs/detector_output.xml" /><laneAreaDetector id="cctv_midblock_84" lane="35027229#0_0" pos="10" length="10" freq="60" file="outputs/detector_output.xml" /><parkingArea id="auto_stand_35" lane="35027229#0_0" startPos="10" endPos="30" roadsideCapacity="3" /><laneAreaDetector id="cctv_signal_queue_85" lane="36806910_0" pos="166.46" length="10" freq="60" file="outputs/detector_output.xml" /><laneAreaDetector id="cctv_midblock_86" lane="36806910_0" pos="10" length="10" freq="60" file="outputs/detector_output.xml" /><laneAreaDetector id="cctv_signal_queue_87" lane="384178816#0_0" pos="30.549999999999997" length="10" freq="60" file="outputs/detector_output.xml" /><laneAreaDetector id="cctv_midblock_88" lane="384178816#0_0" pos="10" length="10" freq="60" file="outputs/detector_output.xml" /><busStop id="bus_stop_24" lane="384178816#0_0" startPos="0" endPos="15" /><parkingArea id="auto_stand_36" lane="384178816#0_0" startPos="15" endPos="30" roadsideCapacity="3" /><laneAreaDetector id="cctv_signal_queue_89" lane="384178816#3_0" pos="27.450000000000003" length="10" freq="60" file="outputs/detector_output.xml" /><laneAreaDetector id="cctv_midblock_90" lane="384178816#3_0" pos="10" length="10" freq="60" file="outputs/detector_output.xml" /><busStop id="bus_stop_25" lane="384178816#3_0" startPos="0" endPos="15" /><parkingArea id="auto_stand_37" lane="384178816#3_0" startPos="15" endPos="30" roadsideCapacity="3" /><laneAreaDetector id="cctv_signal_queue_91" lane="397795463#0_0" pos="28.870000000000005" length="10" freq="60" file="outputs/detector_output.xml" /><laneAreaDetector id="cctv_midblock_92" lane="397795463#0_0" pos="10" length="10" freq="60" file="outputs/detector_output.xml" /><busStop id="bus_stop_26" lane="397795463#0_0" startPos="0" endPos="15" /><parkingArea id="auto_stand_38" lane="397795463#0_0" startPos="15" endPos="30" roadsideCapacity="3" /><laneAreaDetector id="cctv_signal_queue_93" lane="397795464#0_0" pos="25.36" length="10" freq="60" file="outputs/detector_output.xml" /><laneAreaDetector id="cctv_midblock_94" lane="397795464#0_0" pos="10" length="10" freq="60" file="outputs/detector_output.xml" /><busStop id="bus_stop_27" lane="397795464#0_0" startPos="0" endPos="15" /><parkingArea id="auto_stand_39" lane="397795464#0_0" startPos="15" endPos="30" roadsideCapacity="3" /><laneAreaDetector id="cctv_signal_queue_95" lane="420494981#0_0" pos="174.24" length="10" freq="60" file="outputs/detector_output.xml" /><laneAreaDetector id="cctv_midblock_96" lane="420494981#0_0" pos="10" length="10" freq="60" file="outputs/detector_output.xml" /><busStop id="bus_stop_28" lane="420494981#0_0" startPos="0" endPos="15" /><parkingArea id="auto_stand_40" lane="420494981#0_0" startPos="15" endPos="30" roadsideCapacity="3" /><laneAreaDetector id="cctv_signal_queue_97" lane="420907908#0_0" pos="29.840000000000003" length="10" freq="60" file="outputs/detector_output.xml" /><laneAreaDetector id="cctv_midblock_98" lane="420907908#0_0" pos="10" length="10" freq="60" file="outputs/detector_output.xml" /><busStop id="bus_stop_29" lane="420907908#0_0" startPos="0" endPos="15" /><parkingArea id="auto_stand_41" lane="420907908#0_0" startPos="15" endPos="30" roadsideCapacity="3" /><laneAreaDetector id="cctv_signal_queue_99" lane="420908138#0_0" pos="216.14" length="10" freq="60" file="outputs/detector_output.xml" /><laneAreaDetector id="cctv_midblock_100" lane="420908138#0_0" pos="10" length="10" freq="60" file="outputs/detector_output.xml" /><busStop id="bus_stop_30" lane="420908138#0_0" startPos="0" endPos="15" /><parkingArea id="auto_stand_42" lane="420908138#0_0" startPos="15" endPos="30" roadsideCapacity="3" /><laneAreaDetector id="cctv_signal_queue_101" lane="438397345#0_0" pos="29.260000000000005" length="10" freq="60" file="outputs/detector_output.xml" /><laneAreaDetector id="cctv_midblock_102" lane="438397345#0_0" pos="10" length="10" freq="60" file="outputs/detector_output.xml" /><busStop id="bus_stop_31" lane="438397345#0_0" startPos="0" endPos="15" /><parkingArea id="auto_stand_43" lane="438397345#0_0" startPos="15" endPos="30" roadsideCapacity="3" /><laneAreaDetector id="cctv_signal_queue_103" lane="452322756#0_0" pos="168.53" length="10" freq="60" file="outputs/detector_output.xml" /><laneAreaDetector id="cctv_midblock_104" lane="452322756#0_0" pos="10" length="10" freq="60" file="outputs/detector_output.xml" /><parkingArea id="auto_stand_44" lane="452322756#0_0" startPos="10" endPos="30" roadsideCapacity="3" /><laneAreaDetector id="cctv_signal_queue_105" lane="452322756#4_0" pos="223.75" length="10" freq="60" file="outputs/detector_output.xml" /><laneAreaDetector id="cctv_midblock_106" lane="452322756#4_0" pos="10" length="10" freq="60" file="outputs/detector_output.xml" /><parkingArea id="auto_stand_45" lane="452322756#4_0" startPos="10" endPos="30" roadsideCapacity="3" /><laneAreaDetector id="cctv_signal_queue_107" lane="458177130#0_0" pos="104.32" length="10" freq="60" file="outputs/detector_output.xml" /><laneAreaDetector id="cctv_midblock_108" lane="458177130#0_0" pos="10" length="10" freq="60" file="outputs/detector_output.xml" /><busStop id="bus_stop_32" lane="458177130#0_0" startPos="0" endPos="15" /><parkingArea id="auto_stand_46" lane="458177130#0_0" startPos="15" endPos="30" roadsideCapacity="3" /><laneAreaDetector id="cctv_signal_queue_109" lane="458180183#0_0" pos="28.090000000000003" length="10" freq="60" file="outputs/detector_output.xml" /><laneAreaDetector id="cctv_midblock_110" lane="458180183#0_0" pos="10" length="10" freq="60" file="outputs/detector_output.xml" /><busStop id="bus_stop_33" lane="458180183#0_0" startPos="0" endPos="15" /><parkingArea id="auto_stand_47" lane="458180183#0_0" startPos="15" endPos="30" roadsideCapacity="3" /><laneAreaDetector id="cctv_signal_queue_111" lane="464515890#0_0" pos="207.01" length="10" freq="60" file="outputs/detector_output.xml" /><laneAreaDetector id="cctv_midblock_112" lane="464515890#0_0" pos="10" length="10" freq="60" file="outputs/detector_output.xml" /><parkingArea id="auto_stand_48" lane="464515890#0_0" startPos="10" endPos="30" roadsideCapacity="3" /><laneAreaDetector id="cctv_signal_queue_113" lane="464516471#0_0" pos="26.89" length="10" freq="60" file="outputs/detector_output.xml" /><laneAreaDetector id="cctv_midblock_114" lane="464516471#0_0" pos="10" length="10" freq="60" file="outputs/detector_output.xml" /><busStop id="bus_stop_34" lane="464516471#0_0" startPos="0" endPos="15" /><parkingArea id="auto_stand_49" lane="464516471#0_0" startPos="15" endPos="30" roadsideCapacity="3" /><laneAreaDetector id="cctv_signal_queue_115" lane="464516471#13_0" pos="27.010000000000005" length="10" freq="60" file="outputs/detector_output.xml" /><laneAreaDetector id="cctv_midblock_116" lane="464516471#13_0" pos="10" length="10" freq="60" file="outputs/detector_output.xml" /><busStop id="bus_stop_35" lane="464516471#13_0" startPos="0" endPos="15" /><parkingArea id="auto_stand_50" lane="464516471#13_0" startPos="15" endPos="30" roadsideCapacity="3" /><laneAreaDetector id="cctv_signal_queue_117" lane="464516471#16_0" pos="26.409999999999997" length="10" freq="60" file="outputs/detector_output.xml" /><laneAreaDetector id="cctv_midblock_118" lane="464516471#16_0" pos="10" length="10" freq="60" file="outputs/detector_output.xml" /><busStop id="bus_stop_36" lane="464516471#16_0" startPos="0" endPos="15" /><parkingArea id="auto_stand_51" lane="464516471#16_0" startPos="15" endPos="30" roadsideCapacity="3" /><laneAreaDetector id="cctv_signal_queue_119" lane="464516471#3_0" pos="24.379999999999995" length="10" freq="60" file="outputs/detector_output.xml" /><laneAreaDetector id="cctv_midblock_120" lane="464516471#3_0" pos="10" length="10" freq="60" file="outputs/detector_output.xml" /><busStop id="bus_stop_37" lane="464516471#3_0" startPos="0" endPos="15" /><parkingArea id="auto_stand_52" lane="464516471#3_0" startPos="15" endPos="30" roadsideCapacity="3" /><laneAreaDetector id="cctv_signal_queue_121" lane="464516471#6_0" pos="26.700000000000003" length="10" freq="60" file="outputs/detector_output.xml" /><laneAreaDetector id="cctv_midblock_122" lane="464516471#6_0" pos="10" length="10" freq="60" file="outputs/detector_output.xml" /><busStop id="bus_stop_38" lane="464516471#6_0" startPos="0" endPos="15" /><parkingArea id="auto_stand_53" lane="464516471#6_0" startPos="15" endPos="30" roadsideCapacity="3" /><laneAreaDetector id="cctv_signal_queue_123" lane="464516471#9_0" pos="28.47" length="10" freq="60" file="outputs/detector_output.xml" /><laneAreaDetector id="cctv_midblock_124" lane="464516471#9_0" pos="10" length="10" freq="60" file="outputs/detector_output.xml" /><busStop id="bus_stop_39" lane="464516471#9_0" startPos="0" endPos="15" /><parkingArea id="auto_stand_54" lane="464516471#9_0" startPos="15" endPos="30" roadsideCapacity="3" /><laneAreaDetector id="cctv_signal_queue_125" lane="46482609#0_0" pos="223.83999999999997" length="10" freq="60" file="outputs/detector_output.xml" /><laneAreaDetector id="cctv_midblock_126" lane="46482609#0_0" pos="10" length="10" freq="60" file="outputs/detector_output.xml" /><parkingArea id="auto_stand_55" lane="46482609#0_0" startPos="10" endPos="30" roadsideCapacity="3" /><laneAreaDetector id="cctv_signal_queue_127" lane="46522000#0_0" pos="248.95" length="10" freq="60" file="outputs/detector_output.xml" /><laneAreaDetector id="cctv_midblock_128" lane="46522000#0_0" pos="10" length="10" freq="60" file="outputs/detector_output.xml" /><busStop id="bus_stop_40" lane="46522000#0_0" startPos="0" endPos="15" /><parkingArea id="auto_stand_56" lane="46522000#0_0" startPos="15" endPos="30" roadsideCapacity="3" /><laneAreaDetector id="cctv_signal_queue_129" lane="46538335#0_0" pos="219.76999999999998" length="10" freq="60" file="outputs/detector_output.xml" /><laneAreaDetector id="cctv_midblock_130" lane="46538335#0_0" pos="10" length="10" freq="60" file="outputs/detector_output.xml" /><parkingArea id="auto_stand_57" lane="46538335#0_0" startPos="10" endPos="30" roadsideCapacity="3" /><laneAreaDetector id="cctv_signal_queue_131" lane="483360105#0_0" pos="26.689999999999998" length="10" freq="60" file="outputs/detector_output.xml" /><laneAreaDetector id="cctv_midblock_132" lane="483360105#0_0" pos="10" length="10" freq="60" file="outputs/detector_output.xml" /><busStop id="bus_stop_41" lane="483360105#0_0" startPos="0" endPos="15" /><parkingArea id="auto_stand_58" lane="483360105#0_0" startPos="15" endPos="30" roadsideCapacity="3" /><laneAreaDetector id="cctv_signal_queue_133" lane="505317783#0_0" pos="136.27" length="10" freq="60" file="outputs/detector_output.xml" /><laneAreaDetector id="cctv_midblock_134" lane="505317783#0_0" pos="10" length="10" freq="60" file="outputs/detector_output.xml" /><parkingArea id="auto_stand_59" lane="505317783#0_0" startPos="10" endPos="30" roadsideCapacity="3" /><laneAreaDetector id="cctv_signal_queue_135" lane="505317789_0" pos="89.68" length="10" freq="60" file="outputs/detector_output.xml" /><laneAreaDetector id="cctv_midblock_136" lane="505317789_0" pos="10" length="10" freq="60" file="outputs/detector_output.xml" /><laneAreaDetector id="cctv_signal_queue_137" lane="511699175#0_0" pos="28.209999999999994" length="10" freq="60" file="outputs/detector_output.xml" /><laneAreaDetector id="cctv_midblock_138" lane="511699175#0_0" pos="10" length="10" freq="60" file="outputs/detector_output.xml" /><busStop id="bus_stop_42" lane="511699175#0_0" startPos="0" endPos="15" /><parkingArea id="auto_stand_60" lane="511699175#0_0" startPos="15" endPos="30" roadsideCapacity="3" /><laneAreaDetector id="cctv_signal_queue_139" lane="525729008#0_0" pos="213.52" length="10" freq="60" file="outputs/detector_output.xml" /><laneAreaDetector id="cctv_midblock_140" lane="525729008#0_0" pos="10" length="10" freq="60" file="outputs/detector_output.xml" /><busStop id="bus_stop_43" lane="525729008#0_0" startPos="0" endPos="15" /><parkingArea id="auto_stand_61" lane="525729008#0_0" startPos="15" endPos="30" roadsideCapacity="3" /><laneAreaDetector id="cctv_signal_queue_141" lane="542257430#0_0" pos="23.97" length="10" freq="60" file="outputs/detector_output.xml" /><laneAreaDetector id="cctv_midblock_142" lane="542257430#0_0" pos="10" length="10" freq="60" file="outputs/detector_output.xml" /><busStop id="bus_stop_44" lane="542257430#0_0" startPos="0" endPos="15" /><parkingArea id="auto_stand_62" lane="542257430#0_0" startPos="15" endPos="30" roadsideCapacity="3" /><laneAreaDetector id="cctv_signal_queue_143" lane="542257982#0_0" pos="224.0" length="10" freq="60" file="outputs/detector_output.xml" /><laneAreaDetector id="cctv_midblock_144" lane="542257982#0_0" pos="10" length="10" freq="60" file="outputs/detector_output.xml" /><parkingArea id="auto_stand_63" lane="542257982#0_0" startPos="10" endPos="30" roadsideCapacity="3" /><laneAreaDetector id="cctv_signal_queue_145" lane="542258060#0_0" pos="215.56" length="10" freq="60" file="outputs/detector_output.xml" /><laneAreaDetector id="cctv_midblock_146" lane="542258060#0_0" pos="10" length="10" freq="60" file="outputs/detector_output.xml" /><parkingArea id="auto_stand_64" lane="542258060#0_0" startPos="10" endPos="30" roadsideCapacity="3" /><laneAreaDetector id="cctv_signal_queue_147" lane="542258337#0_0" pos="173.0" length="10" freq="60" file="outputs/detector_output.xml" /><laneAreaDetector id="cctv_midblock_148" lane="542258337#0_0" pos="10" length="10" freq="60" file="outputs/detector_output.xml" /><busStop id="bus_stop_45" lane="542258337#0_0" startPos="0" endPos="15" /><parkingA