<?xml version="1.0" encoding="UTF-8"?>

<!-- generated on 2026-03-13T11:18:33.903324+05:30 by Eclipse SUMO netconvert 1.26.0
<netconvertConfiguration xmlns:xsi="http://www.w3.org/2001/XMLSchema-instance" xsi:noNamespaceSchemaLocation="http://sumo.dlr.de/xsd/netconvertConfiguration.xsd">

    <input>
        <sumo-net-file value="manhattan.net.xml"/>
    </input>

    <output>
        <plain-output-prefix value="manhattan_plain"/>
        <output.street-names value="true"/>
    </output>

    <processing>
        <geometry.min-radius.fix.railways value="false"/>
        <geometry.avoid-overlap value="false"/>
        <geometry.max-grade.fix value="false"/>
        <offset.disable-normalization value="true"/>
        <lefthand value="0"/>
    </processing>

    <junctions>
        <no-turnarounds value="true"/>
        <junctions.corner-detail value="7"/>
        <junctions.internal-link-detail value="6"/>
        <junctions.limit-turn-speed value="5.50"/>
        <rectangular-lane-cut value="0"/>
    </junctions>

    <pedestrian>
        <walkingareas value="0"/>
    </pedestrian>

</netconvertConfiguration>
-->

<connections version="1.20" xmlns:xsi="http://www.w3.org/2001/XMLSchema-instance" xsi:noNamespaceSchemaLocation="http://sumo.dlr.de/xsd/connections_file.xsd">
    <connection from="-1136952921#1" to="-167922072#1" fromLane="0" toLane="0"/>
    <connection from="-1136952921#1" to="-167922072#1" fromLane="1" toLane="1"/>

    <connection from="-1148593539" to="1148593539" fromLane="0" toLane="0"/>

    <connection from="-1148593544" to="36806910" fromLane="0" toLane="0"/>
    <connection from="-1148593544" to="1148593544" fromLane="0" toLane="0"/>

    <connection from="-1320290376#1" to="-542259076#2" fromLane="0" toLane="0"/>

    <connection from="-1321771943#1" to="-525729008#5" fromLane="0" toLane="0"/>
    <connection from="-1321771943#1" to="-525729008#5" fromLane="1" toLane="1"/>
    <connection from="-1321771943#1" to="125480075#0" fromLane="2" toLane="3"/>
    <connection from="-1321771943#1" to="1321771943#0" fromLane="2" toLane="1"/>

    <connection from="-1413518738" to="167922074#0" fromLane="0" toLane="0"/>
    <connection from="-1413518738" to="626514137#0" fromLane="0" toLane="0"/>
    <connection from="-1413518738" to="1413518738" fromLane="0" toLane="0"/>

    <connection from="-1413518739#1" to="1413518739#0" fromLane="0" toLane="0"/>

    <connection from="-167922072#1"/>

    <connection from="-167922076#2" to="35027229#0" fromLane="0" toLane="0"/>
    <connection from="-167922076#2" to="-1136952921#1" fromLane="0" toLane="0"/>
    <connection from="-167922076#2" to="-1136952921#1" fromLane="1" toLane="1"/>

    <connection from="-525729008#5" to="-167922076#2" fromLane="0" toLane="0"/>
    <connection from="-525729008#5" to="-167922076#2" fromLane="1" toLane="1"/>
    <connection from="-525729008#5" to="525729008#0" fromLane="1" toLane="1"/>

    <connection from="-542259076#2" to="-1321771943#1" fromLane="0" toLane="0"/>
    <connection from="-542259076#2" to="-1321771943#1" fromLane="0" toLane="1"/>
    <connection from="-542259076#2" to="-1321771943#1" fromLane="0" toLane="2"/>

    <connection from="1027189507#0" to="226041028#0" fromLane="0" toLane="0"/>
    <connection from="1027189507#0" to="226041028#0" fromLane="1" toLane="1"/>

    <connection from="1027189508#0" to="1027189507#0" fromLane="0" toLane="0"/>
    <connection from="1027189508#0" to="1027189507#0" fromLane="1" toLane="1"/>
    <connection from="1027189508#0" to="452322756#4" fromLane="3" toLane="0"/>

    <connection from="1031879418#0" to="505317789" fromLane="0" toLane="0"/>
    <connection from="1031879418#0" to="505317789" fromLane="1" toLane="1"/>
    <connection from="1031879418#0" to="505317789" fromLane="1" toLane="2"/>

    <connection from="1049845754#0" to="1198594026#0" fromLane="0" toLane="0"/>
    <connection from="1049845754#0" to="194926846#0" fromLane="1" toLane="0"/>

    <connection from="1051744070#0" to="46522000#0" fromLane="0" toLane="0"/>
    <connection from="1051744070#0" to="464516471#6" fromLane="1" toLane="2"/>
    <connection from="1051744070#0" to="464516471#6" fromLane="1" toLane="3"/>

    <connection from="1051744778#0" to="968513230#0" fromLane="0" toLane="0"/>
    <connection from="1051744778#0" to="968513231#0" fromLane="1" toLane="2"/>
    <connection from="1051744778#0" to="968513231#0" fromLane="1" toLane="3"/>

    <connection from="1051745205#0" to="1320234484#0" fromLane="0" toLane="0"/>
    <connection from="1051745205#0" to="569345540#3" fromLane="1" toLane="1"/>
    <connection from="1051745205#0" to="569345540#3" fromLane="2" toLane="2"/>

    <connection from="1061622295#0" to="5670124" fromLane="0" toLane="0"/>
    <connection from="1061622295#0" to="5670124" fromLane="0" toLane="1"/>

    <connection from="1106482765#0" to="5672036#0" fromLane="0" toLane="0"/>
    <connection from="1106482765#0" to="511699175#0" fromLane="0" toLane="1"/>
    <connection from="1106482765#0" to="511699175#0" fromLane="0" toLane="2"/>

    <connection from="1117867028" to="464515890#0" fromLane="0" toLane="0"/>
    <connection from="1117867028" to="464516471#0" fromLane="0" toLane="2"/>
    <connection from="1117867028" to="464516471#0" fromLane="0" toLane="3"/>

    <connection from="1117867038#0" to="1117867040#1" fromLane="0" toLane="0"/>
    <connection from="1117867038#0" to="682360554#0" fromLane="0" toLane="2"/>
    <connection from="1117867038#0" to="682360554#0" fromLane="0" toLane="3"/>

    <connection from="1117867040#1" to="194926851#0" fromLane="0" toLane="0"/>
    <connection from="1117867040#1" to="1198594028#0" fromLane="0" toLane="0"/>

    <connection from="1136952921#0" to="167922076#0" fromLane="0" toLane="0"/>
    <connection from="1136952921#0" to="167922076#0" fromLane="1" toLane="1"/>
    <connection from="1136952921#0" to="35027229#0" fromLane="2" toLane="0"/>

    <connection from="1148593539" to="1148593540#0" fromLane="0" toLane="0"/>
    <connection from="1148593539" to="-1148593539" fromLane="0" toLane="0"/>

    <connection from="1148593540#0" to="996521784" fromLane="0" toLane="0"/>
    <connection from="1148593540#0" to="-1148593544" fromLane="0" toLane="0"/>

    <connection from="1148593544" to="996521784" fromLane="0" toLane="0"/>
    <connection from="1148593544" to="-1148593544" fromLane="0" toLane="0"/>

    <connection from="1198594026#0" to="1198594027#0" fromLane="0" toLane="0"/>
    <connection from="1198594026#0" to="1207834766#0" fromLane="1" toLane="0"/>
    <connection from="1198594026#0" to="1207834766#0" fromLane="2" toLane="1"/>

    <connection from="1198594027#0" to="397795464#0" fromLane="0" toLane="0"/>
    <connection from="1198594027#0" to="397795464#0" fromLane="0" toLane="1"/>
    <connection from="1198594027#0" to="1117867028" fromLane="0" toLane="0"/>

    <connection from="1198594028#0" to="1051744778#0" fromLane="0" toLane="0"/>
    <connection from="1198594028#0" to="1051744778#0" fromLane="0" toLane="1"/>

    <connection from="1198594029#0" to="194926851#0" fromLane="0" toLane="0"/>
    <connection from="1198594029#0" to="194926851#0" fromLane="1" toLane="1"/>
    <connection from="1198594029#0" to="194926851#0" fromLane="2" toLane="2"/>
    <connection from="1198594029#0" to="1198594028#0" fromLane="2" toLane="0"/>

    <connection from="1198594030#0" to="1027189508#0" fromLane="0" toLane="0"/>
    <connection from="1198594030#0" to="1027189508#0" fromLane="1" toLane="1"/>
    <connection from="1198594030#0" to="1027189508#0" fromLane="2" toLane="2"/>
    <connection from="1198594030#0" to="1027189508#0" fromLane="2" toLane="3"/>

    <connection from="1207834766#0" to="1198594029#0" fromLane="0" toLane="0"/>
    <connection from="1207834766#0" to="1198594029#0" fromLane="1" toLane="1"/>
    <connection from="1207834766#0" to="1198594029#0" fromLane="1" toLane="2"/>

    <connection from="1211049194#0" to="569345537#0" fromLane="0" toLane="0"/>
    <connection from="1211049194#0" to="569345537#0" fromLane="1" toLane="1"/>
    <connection from="1211049194#0" to="569345537#0" fromLane="2" toLane="2"/>
    <connection from="1211049194#0" to="569345537#0" fromLane="3" toLane="3"/>
    <connection from="1211049194#0" to="569345538#0" fromLane="3" toLane="0"/>

    <connection from="125479721#0" to="542258060#0" fromLane="0" toLane="0"/>
    <connection from="125479721#0" to="542257430#0" fromLane="0" toLane="0"/>
    <connection from="125479721#0" to="542257430#0" fromLane="1" toLane="1"/>
    <connection from="125479721#0" to="542257430#0" fromLane="2" toLane="2"/>
    <connection from="125479721#0" to="542257430#0" fromLane="3" toLane="3"/>

    <connection from="125480075#0" to="1198594026#0" fromLane="0" toLane="0"/>
    <connection from="125480075#0" to="1198594026#0" fromLane="1" toLane="1"/>
    <connection from="125480075#0" to="1198594026#0" fromLane="2" toLane="2"/>
    <connection from="125480075#0" to="194926846#0" fromLane="3" toLane="0"/>

    <connection from="127693103#0" to="127693103#3" fromLane="0" toLane="0"/>
    <connection from="127693103#0" to="127693103#3" fromLane="1" toLane="1"/>
    <connection from="127693103#0" to="127693103#3" fromLane="2" toLane="2"/>
    <connection from="127693103#0" to="127693103#3" fromLane="3" toLane="3"/>
    <connection from="127693103#0" to="226041025#0" fromLane="3" toLane="1"/>
    <connection from="127693103#0" to="226041025#0" fromLane="3" toLane="2"/>

    <connection from="127693103#3" to="464515890#0" fromLane="0" toLane="0"/>
    <connection from="127693103#3" to="464516471#0" fromLane="0" toLane="0"/>
    <connection from="127693103#3" to="464516471#0" fromLane="1" toLane="1"/>
    <connection from="127693103#3" to="464516471#0" fromLane="2" toLane="2"/>
    <connection from="127693103#3" to="464516471#0" fromLane="3" toLane="3"/>

    <connection from="1320234484#0" to="1320234484#3" fromLane="0" toLane="0"/>
    <connection from="1320234484#0" to="1413159922#0" fromLane="0" toLane="0"/>

    <connection from="1320290376#0" to="-1320290376#1" fromLane="2" toLane="1"/>

    <connection from="1321771943#0" to="542259076#0" fromLane="0" toLane="0"/>

    <connection from="1413159922#0" to="626514137#0" fromLane="0" toLane="0"/>
    <connection from="1413159922#0" to="1413518738" fromLane="0" toLane="0"/>
    <connection from="1413159922#0" to="167922074#0" fromLane="0" toLane="2"/>

    <connection from="1413518738" to="-1413518738" fromLane="0" toLane="0"/>

    <connection from="1413518739#0" to="452322757#3" fromLane="0" toLane="0"/>
    <connection from="1413518739#0" to="-1413518739#1" fromLane="0" toLane="0"/>

    <connection from="167922070#0" to="195743209#0" fromLane="0" toLane="0"/>
    <connection from="167922070#0" to="195743344#0" fromLane="0" toLane="0"/>
    <connection from="167922070#0" to="195743344#0" fromLane="1" toLane="1"/>
    <connection from="167922070#0" to="195743344#0" fromLane="2" toLane="2"/>

    <connection from="167922071#0" to="452322757#0" fromLane="0" toLane="0"/>
    <connection from="167922071#0" to="483360105#0" fromLane="0" toLane="0"/>
    <connection from="167922071#0" to="483360105#0" fromLane="1" toLane="1"/>
    <connection from="167922071#0" to="483360105#0" fromLane="2" toLane="2"/>

    <connection from="167922072#0" to="1136952921#0" fromLane="0" toLane="0"/>
    <connection from="167922072#0" to="1136952921#0" fromLane="1" toLane="1"/>
    <connection from="167922072#0" to="1136952921#0" fromLane="1" toLane="2"/>

    <connection from="167922073#0" to="226041029#0" fromLane="0" toLane="0"/>
    <connection from="167922073#0" to="464516471#13" fromLane="0" toLane="2"/>
    <connection from="167922073#0" to="464516471#13" fromLane="0" toLane="3"/>

    <connection from="167922074#0" to="167922071#0" fromLane="0" toLane="0"/>
    <connection from="167922074#0" to="167922073#0" fromLane="1" toLane="0"/>

    <connection from="167922076#0" to="525729008#0" fromLane="0" toLane="0"/>
    <connection from="167922076#0" to="525729008#0" fromLane="1" toLane="1"/>
    <connection from="167922076#0" to="-167922076#2" fromLane="1" toLane="1"/>

    <connection from="194926846#0" to="194926847#0" fromLane="0" toLane="0"/>
    <connection from="194926846#0" to="194926847#0" fromLane="0" toLane="1"/>
    <connection from="194926846#0" to="1021047632#0" fromLane="0" toLane="2"/>
    <connection from="194926846#0" to="1021047632#0" fromLane="0" toLane="3"/>
    <connection from="194926846#0" to="1021047632#0" fromLane="0" toLane="4"/>

    <connection from="194926851#0" to="846142553#0" fromLane="0" toLane="0"/>
    <connection from="194926851#0" to="1198594030#0" fromLane="0" toLane="0"/>
    <connection from="194926851#0" to="1198594030#0" fromLane="1" toLane="1"/>
    <connection from="194926851#0" to="1198594030#0" fromLane="2" toLane="2"/>

    <connection from="194926854#0" to="125479721#0" fromLane="0" toLane="0"/>
    <connection from="194926854#0" to="125479721#0" fromLane="1" toLane="1"/>
    <connection from="194926854#0" to="125479721#0" fromLane="2" toLane="2"/>
    <connection from="194926854#0" to="125479721#0" fromLane="3" toLane="3"/>
    <connection from="194926854#0" to="505317783#0" fromLane="3" toLane="0"/>

    <connection from="195743209#0" to="195743345#0" fromLane="0" toLane="0"/>
    <connection from="195743209#0" to="195743210" fromLane="0" toLane="0"/>

    <connection from="195743344#0" to="569345545#0" fromLane="0" toLane="0"/>
    <connection from="195743344#0" to="569345545#0" fromLane="1" toLane="1"/>
    <connection from="195743344#0" to="569345545#0" fromLane="2" toLane="2"/>
    <connection from="195743344#0" to="569345545#0" fromLane="2" toLane="3"/>

    <connection from="195743345#0" to="420907902#0" fromLane="0" toLane="0"/>
    <connection from="195743345#0" to="420907902#0" fromLane="1" toLane="1"/>
    <connection from="195743345#0" to="420907902#0" fromLane="2" toLane="2"/>
    <connection from="195743345#0" to="420907902#0" fromLane="2" toLane="3"/>

    <connection from="226041025#0" to="569345543#0" fromLane="0" toLane="0"/>
    <connection from="226041025#0" to="569345543#0" fromLane="1" toLane="1"/>
    <connection from="226041025#0" to="569345544#0" fromLane="2" toLane="2"/>
    <connection from="226041025#0" to="569345544#0" fromLane="2" toLane="3"/>

    <connection from="226041027#0" to="1198594027#0" fromLane="0" toLane="0"/>
    <connection from="226041027#0" to="1207834766#0" fromLane="0" toLane="1"/>

    <connection from="226041028#0" to="626514137#0" fromLane="0" toLane="0"/>
    <connection from="226041028#0" to="1413518738" fromLane="0" toLane="0"/>
    <connection from="226041028#0" to="167922074#0" fromLane="0" toLane="0"/>
    <connection from="226041028#0" to="167922074#0" fromLane="1" toLane="1"/>
    <connection from="226041028#0" to="167922074#0" fromLane="1" toLane="2"/>

    <connection from="226041029#0" to="384178816#3" fromLane="0" toLane="0"/>
    <connection from="226041029#0" to="384178816#3" fromLane="0" toLane="1"/>
    <connection from="226041029#0" to="5671629#0" fromLane="0" toLane="0"/>

    <connection from="35027229#0" to="803047266#0" fromLane="0" toLane="0"/>
    <connection from="35027229#0" to="803047267#0" fromLane="0" toLane="0"/>

    <connection from="384178816#0" to="384178816#3" fromLane="0" toLane="0"/>
    <connection from="384178816#0" to="384178816#3" fromLane="1" toLane="1"/>
    <connection from="384178816#0" to="384178816#3" fromLane="2" toLane="2"/>
    <connection from="384178816#0" to="384178816#3" fromLane="3" toLane="3"/>
    <connection from="384178816#0" to="5671629#0" fromLane="3" toLane="0"/>

    <connection from="384178816#3" to="5672036#0" fromLane="0" toLane="0"/>
    <connection from="384178816#3" to="511699175#0" fromLane="1" toLane="0"/>
    <connection from="384178816#3" to="511699175#0" fromLane="2" toLane="1"/>
    <connection from="384178816#3" to="511699175#0" fromLane="3" toLane="2"/>

    <connection from="397795463#0" to="1117867040#1" fromLane="0" toLane="0"/>
    <connection from="397795463#0" to="682360554#0" fromLane="1" toLane="0"/>
    <connection from="397795463#0" to="682360554#0" fromLane="2" toLane="1"/>
    <connection from="397795463#0" to="682360554#0" fromLane="3" toLane="2"/>
    <connection from="397795463#0" to="682360554#0" fromLane="4" toLane="3"/>

    <connection from="397795464#0" to="569345543#0" fromLane="0" toLane="0"/>
    <connection from="397795464#0" to="569345544#0" fromLane="0" toLane="0"/>
    <connection from="397795464#0" to="569345544#0" fromLane="1" toLane="1"/>
    <connection from="397795464#0" to="569345544#0" fromLane="2" toLane="2"/>
    <connection from="397795464#0" to="569345544#0" fromLane="3" toLane="3"/>

    <connection from="420494981#0" to="1051744070#0" fromLane="0" toLane="0"/>
    <connection from="420494981#0" to="1051744070#0" fromLane="0" toLane="1"/>

    <connection from="420907902#0" to="-525729008#5" fromLane="0" toLane="0"/>
    <connection from="420907902#0" to="125480075#0" fromLane="0" toLane="0"/>
    <connection from="420907902#0" to="125480075#0" fromLane="1" toLane="1"/>
    <connection from="420907902#0" to="125480075#0" fromLane="2" toLane="2"/>
    <connection from="420907902#0" to="125480075#0" fromLane="3" toLane="3"/>

    <connection from="420907908#0" to="968513230#0" fromLane="0" toLane="0"/>
    <connection from="420907908#0" to="968513231#0" fromLane="0" toLane="0"/>
    <connection from="420907908#0" to="968513231#0" fromLane="1" toLane="1"/>
    <connection from="420907908#0" to="968513231#0" fromLane="2" toLane="2"/>
    <connection from="420907908#0" to="968513231#0" fromLane="3" toLane="3"/>

    <connection from="420908138#0" to="5670867#0" fromLane="0" toLane="0"/>
    <connection from="420908138#0" to="5670867#0" fromLane="1" toLane="1"/>
    <connection from="420908138#0" to="1211049194#0" fromLane="1" toLane="2"/>
    <connection from="420908138#0" to="1211049194#0" fromLane="1" toLane="3"/>

    <connection from="452322756#0" to="1027189507#0" fromLane="0" toLane="0"/>
    <connection from="452322756#0" to="452322756#4" fromLane="0" toLane="0"/>

    <connection from="452322757#0" to="-1413518739#1" fromLane="0" toLane="0"/>
    <connection from="452322757#0" to="452322757#3" fromLane="0" toLane="0"/>
    <connection from="452322757#0" to="452322757#3" fromLane="1" toLane="1"/>

    <connection from="452322757#3" to="452322756#0" fromLane="0" toLane="0"/>

    <connection from="458177130#0" to="1061622295#0" fromLane="0" toLane="0"/>
    <connection from="458177130#0" to="438397345#0" fromLane="0" toLane="2"/>
    <connection from="458177130#0" to="438397345#0" fromLane="0" toLane="3"/>

    <connection from="458180183#0" to="1061622295#0" fromLane="0" toLane="0"/>
    <connection from="458180183#0" to="438397345#0" fromLane="1" toLane="0"/>
    <connection from="458180183#0" to="438397345#0" fromLane="2" toLane="1"/>
    <connection from="458180183#0" to="438397345#0" fromLane="3" toLane="2"/>
    <connection from="458180183#0" to="438397345#0" fromLane="4" toLane="3"/>

    <connection from="464515890#0" to="1051846230#0" fromLane="0" toLane="0"/>
    <connection from="464515890#0" to="1051846230#0" fromLane="0" toLane="1"/>

    <connection from="464516471#0" to="464516471#3" fromLane="0" toLane="0"/>
    <connection from="464516471#0" to="464516471#3" fromLane="1" toLane="1"/>
    <connection from="464516471#0" to="464516471#3" fromLane="2" toLane="2"/>
    <connection from="464516471#0" to="464516471#3" fromLane="3" toLane="3"/>
    <connection from="464516471#0" to="1117867038#0" fromLane="3" toLane="0"/>

    <connection from="464516471#13" to="464516471#16" fromLane="0" toLane="0"/>
    <connection from="464516471#13" to="464516471#16" fromLane="1" toLane="1"/>
    <connection from="464516471#13" to="464516471#16" fromLane="2" toLane="2"/>
    <connection from="464516471#13" to="464516471#16" fromLane="3" toLane="3"/>
    <connection from="464516471#13" to="542258337#0" fromLane="3" toLane="1"/>

    <connection from="464516471#16" to="5670867#0" fromLane="0" toLane="0"/>
    <connection from="464516471#16" to="1211049194#0" fromLane="0" toLane="0"/>
    <connection from="464516471#16" to="1211049194#0" fromLane="1" toLane="1"/>
    <connection from="464516471#16" to="1211049194#0" fromLane="2" toLane="2"/>
    <connection from="464516471#16" to="1211049194#0" fromLane="3" toLane="3"/>

    <connection from="464516471#3" to="46522000#0" fromLane="0" toLane="0"/>
    <connection from="464516471#3" to="464516471#6" fromLane="0" toLane="0"/>
    <connection from="464516471#3" to="464516471#6" fromLane="1" toLane="1"/>
    <connection from="464516471#3" to="464516471#6" fromLane="2" toLane="2"/>
    <connection from="464516471#3" to="464516471#6" fromLane="3" toLane="3"/>

    <connection from="464516471#6" to="464516471#9" fromLane="0" toLane="0"/>
    <connection from="464516471#6" to="464516471#9" fromLane="1" toLane="1"/>
    <connection from="464516471#6" to="464516471#9" fromLane="2" toLane="2"/>
    <connection from="464516471#6" to="464516471#9" fromLane="3" toLane="3"/>
    <connection from="464516471#6" to="5672036#3" fromLane="3" toLane="0"/>

    <connection from="464516471#9" to="226041029#0" fromLane="0" toLane="0"/>
    <connection from="464516471#9" to="464516471#13" fromLane="0" toLane="0"/>
    <connection from="464516471#9" to="464516471#13" fromLane="1" toLane="1"/>
    <connection from="464516471#9" to="464516471#13" fromLane="2" toLane="2"/>
    <connection from="464516471#9" to="464516471#13" fromLane="3" toLane="3"/>

    <connection from="46482609#0" to="968513229#0" fromLane="0" toLane="0"/>
    <connection from="46482609#0" to="968513229#0" fromLane="0" toLane="1"/>
    <connection from="46482609#0" to="226041027#0" fromLane="0" toLane="0"/>

    <connection from="46522000#0" to="458180183#0" fromLane="0" toLane="0"/>
    <connection from="46522000#0" to="458180183#0" fromLane="0" toLane="1"/>
    <connection from="46522000#0" to="5670225#0" fromLane="0" toLane="0"/>

    <connection from="46538335#0" to="569345536#0" fromLane="0" toLane="0"/>
    <connection from="46538335#0" to="569345536#0" fromLane="0" toLane="1"/>

    <connection from="483360105#0" to="397795463#0" fromLane="0" toLane="0"/>
    <connection from="483360105#0" to="397795463#0" fromLane="1" toLane="1"/>
    <connection from="483360105#0" to="397795463#0" fromLane="2" toLane="2"/>
    <connection from="483360105#0" to="397795463#0" fromLane="2" toLane="3"/>
    <connection from="483360105#0" to="397795463#0" fromLane="2" toLane="4"/>

    <connection from="505317789" to="542258060#0" fromLane="0" toLane="0"/>
    <connection from="505317789" to="542257430#0" fromLane="1" toLane="2"/>
    <connection from="505317789" to="542257430#0" fromLane="2" toLane="3"/>

    <connection from="511699175#0" to="458180183#0" fromLane="0" toLane="0"/>
    <connection from="511699175#0" to="458180183#0" fromLane="1" toLane="1"/>
    <connection from="511699175#0" to="458180183#0" fromLane="2" toLane="2"/>
    <connection from="511699175#0" to="458180183#0" fromLane="2" toLane="3"/>
    <connection from="511699175#0" to="458180183#0" fromLane="2" toLane="4"/>
    <connection from="511699175#0" to="5670225#0" fromLane="2" toLane="0"/>

    <connection from="525729008#0" to="125480075#0" fromLane="0" toLane="0"/>
    <connection from="525729008#0" to="1321771943#0" fromLane="0" toLane="0"/>
    <connection from="525729008#0" to="1321771943#0" fromLane="1" toLane="1"/>
    <connection from="525729008#0" to="-525729008#5" fromLane="1" toLane="1"/>

    <connection from="542257430#0" to="195743345#0" fromLane="0" toLane="0"/>
    <connection from="542257430#0" to="195743345#0" fromLane="1" toLane="1"/>
    <connection from="542257430#0" to="195743345#0" fromLane="2" toLane="2"/>
    <connection from="542257430#0" to="195743210" fromLane="3" toLane="0"/>

    <connection from="542257982#0" to="125479721#0" fromLane="0" toLane="0"/>
    <connection from="542257982#0" to="125479721#0" fromLane="0" toLane="1"/>
    <connection from="542257982#0" to="505317783#0" fromLane="0" toLane="0"/>

    <connection from="542258337#0" to="1051745205#0" fromLane="0" toLane="0"/>
    <connection from="542258337#0" to="1051745205#0" fromLane="1" toLane="1"/>
    <connection from="542258337#0" to="1051745205#0" fromLane="1" toLane="2"/>

    <connection from="542259076#0" to="1320290376#0" fromLane="0" toLane="0"/>
    <connection from="542259076#0" to="1320290376#0" fromLane="0" toLane="1"/>
    <connection from="542259076#0" to="1320290376#0" fromLane="0" toLane="2"/>

    <connection from="5670114#0" to="464516471#16" fromLane="0" toLane="0"/>
    <connection from="5670114#0" to="464516471#16" fromLane="0" toLane="1"/>
    <connection from="5670114#0" to="542258337#0" fromLane="0" toLane="0"/>
    <connection from="5670114#0" to="542258337#0" fromLane="0" toLane="1"/>

    <connection from="5670124" to="464516471#3" fromLane="0" toLane="0"/>
    <connection from="5670124" to="464516471#3" fromLane="0" toLane="1"/>
    <connection from="5670124" to="1117867038#0" fromLane="1" toLane="0"/>

    <connection from="5672036#0" to="464516471#9" fromLane="0" toLane="0"/>
    <connection from="5672036#0" to="464516471#9" fromLane="0" toLane="1"/>
    <connection from="5672036#0" to="5672036#3" fromLane="0" toLane="0"/>

    <connection from="5672036#3" to="452322757#0" fromLane="0" toLane="0"/>
    <connection from="5672036#3" to="452322757#0" fromLane="0" toLane="1"/>
    <connection from="5672036#3" to="483360105#0" fromLane="0" toLane="1"/>
    <connection from="5672036#3" to="483360105#0" fromLane="0" toLane="2"/>

    <connection from="5672464#0" to="127693103#3" fromLane="0" toLane="0"/>
    <connection from="5672464#0" to="127693103#3" fromLane="0" toLane="1"/>
    <connection from="5672464#0" to="226041025#0" fromLane="0" toLane="0"/>
    <connection from="5672464#0" to="226041025#0" fromLane="0" toLane="1"/>
    <connection from="5672464#0" to="226041025#0" fromLane="0" toLane="2"/>

    <connection from="5673323#0" to="803047266#0" fromLane="0" toLane="0"/>
    <connection from="5673323#0" to="803047267#0" fromLane="0" toLane="0"/>

    <connection from="569345536#0" to="569345537#0" fromLane="0" toLane="0"/>
    <connection from="569345536#0" to="569345537#0" fromLane="0" toLane="1"/>
    <connection from="569345536#0" to="569345538#0" fromLane="1" toLane="0"/>

    <connection from="569345537#0" to="717625447#4" fromLane="0" toLane="0"/>
    <connection from="569345537#0" to="569345537#5" fromLane="0" toLane="0"/>
    <connection from="569345537#0" to="569345537#5" fromLane="1" toLane="1"/>
    <connection from="569345537#0" to="569345537#5" fromLane="2" toLane="2"/>
    <connection from="569345537#0" to="569345537#5" fromLane="3" toLane="3"/>

    <connection from="569345540#0" to="1320234484#0" fromLane="0" toLane="0"/>
    <connection from="569345540#0" to="569345540#3" fromLane="0" toLane="0"/>
    <connection from="569345540#0" to="569345540#3" fromLane="1" toLane="1"/>
    <connection from="569345540#0" to="569345540#3" fromLane="2" toLane="2"/>

    <connection from="569345540#3" to="167922071#0" fromLane="0" toLane="0"/>
    <connection from="569345540#3" to="167922071#0" fromLane="1" toLane="1"/>
    <connection from="569345540#3" to="167922071#0" fromLane="2" toLane="2"/>
    <connection from="569345540#3" to="167922073#0" fromLane="2" toLane="0"/>

    <connection from="569345543#0" to="1049845754#0" fromLane="0" toLane="0"/>
    <connection from="569345543#0" to="1049845754#0" fromLane="0" toLane="1"/>
    <connection from="569345543#0" to="1049845754#0" fromLane="1" toLane="2"/>

    <connection from="569345544#0" to="525729008#0" fromLane="0" toLane="0"/>
    <connection from="569345544#0" to="167922070#0" fromLane="1" toLane="0"/>
    <connection from="569345544#0" to="167922070#0" fromLane="2" toLane="1"/>
    <connection from="569345544#0" to="167922070#0" fromLane="3" toLane="2"/>

    <connection from="626514137#0" to="452322756#0" fromLane="0" toLane="0"/>

    <connection from="682360554#0" to="397795464#0" fromLane="0" toLane="0"/>
    <connection from="682360554#0" to="397795464#0" fromLane="1" toLane="1"/>
    <connection from="682360554#0" to="397795464#0" fromLane="2" toLane="2"/>
    <connection from="682360554#0" to="397795464#0" fromLane="3" toLane="3"/>

    <connection from="717625447#0" to="717625447#4" fromLane="0" toLane="0"/>
    <connection from="717625447#0" to="569345537#5" fromLane="0" toLane="2"/>
    <connection from="717625447#0" to="569345537#5" fromLane="0" toLane="3"/>

    <connection from="803047266#0" to="195743209#0" fromLane="0" toLane="0"/>
    <connection from="803047266#0" to="195743344#0" fromLane="0" toLane="1"/>
    <connection from="803047266#0" to="195743344#0" fromLane="0" toLane="2"/>

    <connection from="846142552#0" to="846142553#0" fromLane="0" toLane="0"/>
    <connection from="846142552#0" to="1198594030#0" fromLane="0" toLane="1"/>
    <connection from="846142552#0" to="1198594030#0" fromLane="0" toLane="2"/>

    <connection from="846142553#0" to="397795463#0" fromLane="0" toLane="0"/>
    <connection from="846142553#0" to="397795463#0" fromLane="0" toLane="1"/>
    <connection from="846142553#0" to="420494981#0" fromLane="0" toLane="0"/>

    <connection from="968513229#0" to="194926847#0" fromLane="0" toLane="0"/>
    <connection from="968513229#0" to="1021047632#0" fromLane="0" toLane="0"/>
    <connection from="968513229#0" to="1021047632#0" fromLane="1" toLane="1"/>
    <connection from="968513229#0" to="1021047632#0" fromLane="2" toLane="2"/>
    <connection from="968513229#0" to="1021047632#0" fromLane="3" toLane="3"/>
    <connection from="968513229#0" to="1021047632#0" fromLane="3" toLane="4"/>

    <connection from="968513231#0" to="968513229#0" fromLane="0" toLane="0"/>