<?xml version="1.0" encoding="UTF-8"?>

<!-- generated on 2026-03-13T11:18:33.911079+05:30 by Eclipse SUMO netconvert 1.26.0
<netconvertConfiguration xmlns:xsi="http://www.w3.org/2001/XMLSchema-instance" xsi:noNamespaceSchemaLocation="http://sumo.dlr.de/xsd/netconvertConfiguration.xsd">

    <input>
        <sumo-net-file value="manhattan.net.xml"/>
    </input>

    <output>
        <plain-output-prefix value="manhattan_plain"/>
        <output.street-names value="true"/>
    </output>

    <processing>
        <geometry.min-radius.fix.railways value="false"/>
        <geometry.avoid-overlap value="false"/>
        <geometry.max-grade.fix value="false"/>
        <offset.disable-normalization value="true"/>
        <lefthand value="0"/>
    </processing>

    <junctions>
        <no-turnarounds value="true"/>
        <junctions.corner-detail value="7"/>
        <junctions.internal-link-detail value="6"/>
        <junctions.limit-turn-speed value="5.50"/>
        <rectangular-lane-cut value="0"/>
    </junctions>

    <pedestrian>
        <walkingareas value="0"/>
    </pedestrian>

</netconvertConfiguration>
-->

<tlLogics version="1.20" xmlns:xsi="http://www.w3.org/2001/XMLSchema-instance" xsi:noNamespaceSchemaLocation="http://sumo.dlr.de/xsd/tllogic_file.xsd">
    <tlLogic id="42428283" type="actuated" programID="0" offset="0">
        <phase duration="42" state="GGrr" minDur="5" maxDur="50"/>
        <phase duration="3"  state="yyrr"/>
        <phase duration="42" state="rrGG" minDur="5" maxDur="50"/>
        <phase duration="3"  state="rryy"/>
    </tlLogic>
    <tlLogic id="42428287" type="actuated" programID="0" offset="0">
        <phase duration="78" state="GGgGGG" minDur="5" maxDur="50"/>
        <phase duration="3"  state="GGgyyy"/>
        <phase duration="6"  state="GGGrrr" minDur="5" maxDur="50"/>
        <phase duration="3"  state="GGyrrr"/>
    </tlLogic>
    <tlLogic id="42428297" type="actuated" programID="0" offset="0">
        <phase duration="39" state="GGGGGrrr" minDur="5" maxDur="50"/>
        <phase duration="6"  state="yyyyyrrr"/>
        <phase duration="39" state="rrrrrGGG" minDur="13" maxDur="50"/>
        <phase duration="6"  state="rrrrryyy"/>
    </tlLogic>
    <tlLogic id="42428305" type="actuated" programID="0" offset="0">
        <phase duration="27" state="rrrrrrGGGGG" minDur="5" maxDur="50"/>
        <phase duration="3"  state="rrrrrryyyyy"/>
        <phase duration="27" state="rrrGGGrrrrr" minDur="5" maxDur="50"/>
        <phase duration="3"  state="rrryyyrrrrr"/>
        <phase duration="27" state="GGGrrrrrrrr" minDur="5" maxDur="50"/>
        <phase duration="3"  state="yyyrrrrrrrr"/>
    </tlLogic>
    <tlLogic id="42428307" type="actuated" programID="0" offset="0">
        <phase duration="82" state="GG" minDur="5" maxDur="50"/>
        <phase duration="3"  state="yy"/>
        <phase duration="5"  state="rr"/>
    </tlLogic>
    <tlLogic id="42430338" type="actuated" programID="0" offset="0">
        <phase duration="39" state="GGGGGrrrrrr" minDur="5" maxDur="50"/>
        <phase duration="6"  state="yyyyyrrrrrr"/>
        <phase duration="39" state="rrrrrGGGGGG" minDur="13" maxDur="50"/>
        <phase duration="6"  state="rrrrryyyyyy"/>
    </tlLogic>
    <tlLogic id="42430342" type="actuated" programID="0" offset="0">
        <phase duration="39" state="GGGGGrrr" minDur="13" maxDur="50"/>
        <phase duration="6"  state="yyyyyrrr"/>
        <phase duration="39" state="rrrrrGGG" minDur="5" maxDur="50"/>
        <phase duration="6"  state="rrrrryyy"/>
    </tlLogic>
    <tlLogic id="42430344" type="actuated" programID="0" offset="0">
        <phase duration="39" state="GGGrrrrr" minDur="13" maxDur="50"/>
        <phase duration="6"  state="yyyrrrrr"/>
        <phase duration="39" state="rrrGGGGG" minDur="13" maxDur="50"/>
        <phase duration="6"  state="rrryyyyy"/>
    </tlLogic>
    <tlLogic id="42430347" type="actuated" programID="0" offset="0">
        <phase duration="39" state="GGGGGrrr" minDur="13" maxDur="50"/>
        <phase duration="6"  state="yyyyyrrr"/>
        <phase duration="39" state="rrrrrGGG" minDur="13" maxDur="50"/>
        <phase duration="6"  state="rrrrryyy"/>
    </tlLogic>
    <tlLogic id="42430350" type="actuated" programID="0" offset="0">
        <phase duration="39" state="GGGrrrrr" minDur="5" maxDur="50"/>
        <phase duration="6"  state="yyyrrrrr"/>
        <phase duration="39" state="rrrGGGGG" minDur="13" maxDur="50"/>
        <phase duration="6"  state="rrryyyyy"/>
    </tlLogic>
    <tlLogic id="42430352" type="actuated" programID="0" offset="0">
        <phase duration="39" state="GGGGGrrr" minDur="13" maxDur="50"/>
        <phase duration="6"  state="yyyyyrrr"/>
        <phase duration="39" state="rrrrrGGG" minDur="5" maxDur="50"/>
        <phase duration="6"  state="rrrrryyy"/>
    </tlLogic>
    <tlLogic id="42430356" type="actuated" programID="0" offset="0">
        <phase duration="39" state="GGGGrrrrr" minDur="13" maxDur="50"/>
        <phase duration="6"  state="yyyyrrrrr"/>
        <phase duration="39" state="rrrrGGGGG" minDur="13" maxDur="50"/>
        <phase duration="6"  state="rrrryyyyy"/>
    </tlLogic>
    <tlLogic id="42430358" type="actuated" programID="0" offset="0">
        <phase duration="39" state="GGGGGrrrr" minDur="13" maxDur="50"/>
        <phase duration="6"  state="yyyyyrrrr"/>
        <phase duration="39" state="rrrrrGGGG" minDur="13" maxDur="50"/>
        <phase duration="6"  state="rrrrryyyy"/>
    </tlLogic>
    <tlLogic id="42430361" type="actuated" programID="0" offset="0">
        <phase duration="39" state="GGGrrrrr" minDur="5" maxDur="50"/>
        <phase duration="6"  state="yyyrrrrr"/>
        <phase duration="39" state="rrrGGGGG" minDur="13" maxDur="50"/>
        <phase duration="6"  state="rrryyyyy"/>
    </tlLogic>
    <tlLogic id="42430363" type="actuated" programID="0" offset="0">
        <phase duration="39" state="GGGGGrrr" minDur="13" maxDur="50"/>
        <phase duration="6"  state="yyyyyrrr"/>
        <phase duration="39" state="rrrrrGGG" minDur="5" maxDur="50"/>
        <phase duration="6"  state="rrrrryyy"/>
    </tlLogic>
    <tlLogic id="42432585" type="actuated" programID="0" offset="0">
        <phase duration="39" state="GGGGrrr" minDur="5" maxDur="50"/>
        <phase duration="6"  state="yyyyrrr"/>
        <phase duration="39" state="rrrrGGG" minDur="13" maxDur="50"/>
        <phase duration="6"  state="rrrryyy"/>
    </tlLogic>
    <tlLogic id="42432693" type="actuated" programID="0" offset="0">
        <phase duration="39" state="GGGGGrrr" minDur="13" maxDur="50"/>
        <phase duration="6"  state="yyyyyrrr"/>
        <phase duration="39" state="rrrrrGGG" minDur="13" maxDur="50"/>
        <phase duration="6"  state="rrrrryyy"/>
    </tlLogic>
    <tlLogic id="42432700" type="actuated" programID="0" offset="0">
        <phase duration="39" state="GGrrrr" minDur="13" maxDur="50"/>
        <phase duration="6"  state="yyrrrr"/>
        <phase duration="39" state="rrGGGG" minDur="5" maxDur="50"/>
        <phase duration="6"  state="rryyyy"/>
    </tlLogic>
    <tlLogic id="42432703" type="actuated" programID="0" offset="0">
        <phase duration="39" state="GGGGGrrr" minDur="13" maxDur="50"/>
        <phase duration="6"  state="yyyyyrrr"/>
        <phase duration="39" state="rrrrrGGG" minDur="13" maxDur="50"/>
        <phase duration="6"  state="rrrrryyy"/>
    </tlLogic>
    <tlLogic id="42434072" type="actuated" programID="0" offset="0">
        <phase duration="39" state="GGGGGGrrr" minDur="13" maxDur="50"/>
        <phase duration="6"  state="yyyyyyrrr"/>
        <phase duration="39" state="rrrrrrGGG" minDur="13" maxDur="50"/>
        <phase duration="6"  state="rrrrrryyy"/>
    </tlLogic>
    <tlLogic id="42435654" type="actuated" programID="0" offset="0">
        <phase duration="42" state="GGGrrrrr" minDur="5" maxDur="50"/>
        <phase duration="3"  state="yyyrrrrr"/>
        <phase duration="42" state="rrrGGGGG" minDur="5" maxDur="50"/>
        <phase duration="3"  state="rrryyyyy"/>
    </tlLogic>
    <tlLogic id="42435657" type="actuated" programID="0" offset="0">
        <phase duration="39" state="GGGGGrrr" minDur="13" maxDur="50"/>
        <phase duration="6"  state="yyyyyrrr"/>
        <phase duration="39" state="rrrrrGGG" minDur="5" maxDur="50"/>
        <phase duration="6"  state="rrrrryyy"/>
    </tlLogic>
    <tlLogic id="42435660" type="actuated" programID="0" offset="0">
        <phase duration="39" state="GGrrrr" minDur="5" maxDur="50"/>
        <phase duration="6"  state="yyrrrr"/>
        <phase duration="39" state="rrGGGG" minDur="13" maxDur="50"/>
        <phase duration="6"  state="rryyyy"/>
    </tlLogic>
    <tlLogic id="42435663" type="actuated" programID="0" offset="0">
        <phase duration="33" state="GGGgrrrrrGGgg" minDur="5" maxDur="50"/>
        <phase duration="6"  state="yyyyrrrrrGGgg"/>
        <phase duration="6"  state="rrrrrrrrrGGGG" minDur="5" maxDur="50"/>
        <phase duration="6"  state="rrrrrrrrryyyG"/>
        <phase duration="33" state="rrrrGGGGGrrrG" minDur="13" maxDur="50"/>
        <phase duration="6"  state="rrrryyyyyrrry"/>
    </tlLogic>
    <tlLogic id="42435671" type="actuated" programID="0" offset="0">
        <phase duration="42" state="GGGrr" minDur="5" maxDur="50"/>
        <phase duration="3"  state="yyyrr"/>
        <phase duration="42" state="rrrGG" minDur="5" maxDur="50"/>
        <phase duration="3"  state="rrryy"/>
    </tlLogic>
    <tlLogic id="42435675" type="actuated" programID="0" offset="0">
        <phase duration="39" state="GGGGrrr" minDur="5" maxDur="50"/>
        <phase duration="6"  state="yyyyrrr"/>
        <phase duration="39" state="rrrrGGG" minDur="13" maxDur="50"/>
        <phase duration="6"  state="rrrryyy"/>
    </tlLogic>
    <tlLogic id="42435677" type="actuated" programID="0" offset="0">
        <phase duration="42" state="GGrrr" minDur="5" maxDur="50"/>
        <phase duration="3"  state="yyrrr"/>
        <phase duration="42" state="rrGGG" minDur="5" maxDur="50"/>
        <phase duration="3"  state="rryyy"/>
    </tlLogic>
    <tlLogic id="42437363" type="actuated" programID="0" offset="0">
        <phase duration="42" state="rrrrGGgGGg" minDur="5" maxDur="50"/>
        <phase duration="3"  state="rrrryygyyy"/>
        <phase duration="42" state="GGGGrrGrrr" minDur="5" maxDur="50"/>
        <phase duration="3"  state="yyyyrryrrr"/>
    </tlLogic>
    <tlLogic id="42439972" type="actuated" programID="0" offset="0">
        <phase duration="42" state="GGGGrrr" minDur="5" maxDur="50"/>
        <phase duration="3"  state="yyyyrrr"/>
        <phase duration="42" state="rrrrGGG" minDur="5" maxDur="50"/>
        <phase duration="3"  state="rrrryyy"/>
    </tlLogic>
    <tlLogic id="42439984" type="actuated" programID="0" offset="0">
        <phase duration="42" state="GGGGrrr" minDur="5" maxDur="50"/>
        <phase duration="3"  state="yyyyrrr"/>
        <phase duration="42" state="rrrrGGG" minDur="5" maxDur="50"/>
        <phase duration="3"  state="rrrryyy"/>
    </tlLogic>
    <tlLogic id="42439990" type="actuated" programID="0" offset="0">
        <phase duration="39" state="GGGGGrrr" minDur="5" maxDur="50"/>
        <phase duration="6"  state="yyyyyrrr"/>
        <phase duration="39" state="rrrrrGGG" minDur="13" maxDur="50"/>
        <phase duration="6"  state="rrrrryyy"/>
    </tlLogic>
    <tlLogic id="42439994" type="actuated" programID="0" offset="0">
        <phase duration="42" state="GGGGrrrr" minDur="5" maxDur="50"/>
        <phase duration="3"  state="yyyyrrrr"/>
        <phase duration="42" state="rrrrGGGG" minDur="5" maxDur="50"/>
        <phase duration="3"  state="rrrryyyy"/>
    </tlLogic>
    <tlLogic id="42439996" type="actuated" programID="0" offset="0">
        <phase duration="42" state="GGGGrr" minDur="5" maxDur="50"/>
        <phase duration="3"  state="yyyyrr"/>
        <phase duration="42" state="rrrrGG" minDur="5" maxDur="50"/>
        <phase duration="3"  state="rrrryy"/>
    </tlLogic>
    <tlLogic id="42443528" type="actuated" programID="0" offset="0">
        <phase duration="39" state="GGGGGrrr" minDur="13" maxDur="50"/>
        <phase duration="6"  state="yyyyyrrr"/>
        <phase duration="39" state="rrrrrGGG" minDur="5" maxDur="50"/>
        <phase duration="6"  state="rrrrryyy"/>
    </tlLogic>
    <tlLogic id="42443561" type="actuated" programID="0" offset="0">
        <phase duration="39" state="GGGGGrrr" minDur="13" maxDur="50"/>
        <phase duration="6"  state="yyyyyrrr"/>
        <phase duration="39" state="rrrrrGGG" minDur="5" maxDur="50"/>
        <phase duration="6"  state="rrrrryyy"/>
    </tlLogic>
    <tlLogic id="42445011" type="actuated" programID="0" offset="0">
        <phase duration="39" state="GGGGGGrrrrr" minDur="13" maxDur="50"/>
        <phase duration="6"  state="yyyyyyrrrrr"/>
        <phase duration="39" state="rrrrrrGGGGG" minDur="5" maxDur="50"/>
        <phase duration="6"  state="rrrrrryyyyy"/>
    </tlLogic>
    <tlLogic id="42452353" type="actuated" programID="0" offset="0">
        <phase duration="39" state="GGGGrrr" minDur="13" maxDur="50"/>
        <phase duration="6"  state="yyyyrrr"/>
        <phase duration="39" state="rrrrGGG" minDur="5" maxDur="50"/>
        <phase duration="6"  state="rrrryyy"/>
    </tlLogic>
    <tlLogic id="5849918504" type="actuated" programID="0" offset="0">
        <phase duration="42" state="GGrrrr" minDur="5" maxDur="50"/>
        <phase duration="3"  state="yyrrrr"/>
        <phase duration="42" state="rrGGGG" minDur="5" maxDur="50"/>
        <phase duration="3"  state="rryyyy"/>
    </tlLogic>
    <tlLogic id="GS_42439981" type="actuated" programID="0" offset="0">
        <phase duration="42" state="GGGGGrrrr" minDur="5" maxDur="50"/>
        <phase duration="3"  state="yyyyyrrrr"/>
        <phase duration="42" state="rrrrrGGGG" minDur="5" maxDur="50"/>
        <phase duration="3"  state="rrrrryyyy"/>
    </tlLogic>
    <tlLogic id="joinedS_12989986305_42428303" type="actuated" programID="0" offset="0">
        <phase duration="27" state="rgGrrGr" minDur="5" maxDur="50"/>
        <phase duration="3"  state="ryGrryr"/>
        <phase duration="27" state="rrGGGrG" minDur="5" maxDur="50"/>
        <phase duration="3"  state="rrGyyrG"/>
        <phase duration="27" state="GgGrrrG" minDur="5" maxDur="50"/>
        <phase duration="3"  state="ygGrrry"/>
    </tlLogic>

    <connection from="-1321771943#1" to="-525729008#5" fromLane="0" toLane="0" tl="42435663" linkIndex="9"/>
    <connection from="-1321771943#1" to="-525729008#5" fromLane="1" toLane="1" tl="42435663" linkIndex="10"/>
    <connection from="-1321771943#1" to="125480075#0" fromLane="2" toLane="3" tl="42435663" linkIndex="11"/>
    <connection from="-1321771943#1" to="1321771943#0" fromLane="2" toLane="1" tl="42435663" linkIndex="12"/>
    <connection from="-1413518738" to="167922074#0" fromLane="0" toLane="0" tl="42428305" linkIndex="3"/>
    <connection from="-1413518738" to="626514137#0" fromLane="0" toLane="0" tl="42428305" linkIndex="4"/>
    <connection from="-1413518738" to="1413518738" fromLane="0" toLane="0" tl="42428305" linkIndex="5"/>
    <connection from="-167922076#2" to="35027229#0" fromLane="0" toLane="0" tl="42428287" linkIndex="3"/>
    <connection from="-167922076#2" to="-1136952921#1" fromLane="0" toLane="0" tl="42428287" linkIndex="4"/>
    <connection from="-167922076#2" to="-1136952921#1" fromLane="1" toLane="1" tl="42428287" linkIndex="5"/>
    <connection from="-525729008#5" to="-167922076#2" fromLane="0" toLane="0" tl="42437363" linkIndex="7"/>
    <connection from="-525729008#5" to="-167922076#2" fromLane="1" toLane="1" tl="42437363" linkIndex="8"/>
    <connection from="-525729008#5" to="525729008#0" fromLane="1" toLane="1" tl="42437363" linkIndex="9"/>
    <connection from="1027189508#0" to="1027189507#0" fromLane="0" toLane="0" tl="42435677" linkIndex="2"/>
    <connection from="1027189508#0" to="1027189507#0" fromLane="1" toLane="1" tl="42435677" linkIndex="3"/>
    <connection from="1027189508#0" to="452322756#4" fromLane="3" toLane="0" tl="42435677" linkIndex="4"/>
    <connection from="1049845754#0" to="1198594026#0" fromLane="0" toLane="0" tl="5849918504" linkIndex="0"/>
    <connection from="1049845754#0" to="194926846#0" fromLane="1" toLane="0" tl="5849918504" linkIndex="1"/>
    <connection from="1051744070#0" to="46522000#0" fromLane="0" toLane="0" tl="42430347" linkIndex="5"/>
    <connection from="1051744070#0" to="464516471#6" fromLane="1" toLane="2" tl="42430347" linkIndex="6"/>
    <connection from="1051744070#0" to="464516471#6" fromLane="1" toLane="3" tl="42430347" linkIndex="7"/>
    <connection from="1051744778#0" to="968513230#0" fromLane="0" toLane="0" tl="42432703" linkIndex="5"/>
    <connection from="1051744778#0" to="968513231#0" fromLane="1" toLane="2" tl="42432703" linkIndex="6"/>
    <connection from="1051744778#0" to="968513231#0" fromLane="1" toLane="3" tl="42432703" linkIndex="7"/>
    <connection from="1051745205#0" to="1320234484#0" fromLane="0" toLane="0" tl="42432585" linkIndex="4"/>
    <connection from="1051745205#0" to="569345540#3" fromLane="1" toLane="1" tl="42432585" linkIndex="5"/>
    <connection from="1051745205#0" to="569345540#3" fromLane="2" toLane="2" tl="42432585" linkIndex="6"/>
    <connection from="1106482765#0" to="5672036#0" fromLane="0" toLane="0" tl="42452353" linkIndex="4"/>
    <connection from="1106482765#0" to="511699175#0" fromLane="0" toLane="1" tl="42452353" linkIndex="5"/>
    <connection from="1106482765#0" to="511699175#0" fromLane="0" toLane="2" tl="42452353" linkIndex="6"/>
    <connection from="1117867028" to="464515890#0" fromLane="0" toLane="0" tl="42430342" linkIndex="5"/>
    <connection from="1117867028" to="464516471#0" fromLane="0" toLane="2" tl="42430342" linkIndex="6"/>
    <connection from="1117867028" to="464516471#0" fromLane="0" toLane="3" tl="42430342" linkIndex="7"/>
    <connection from="1117867038#0" to="1117867040#1" fromLane="0" toLane="0" tl="42428297" linkIndex="5"/>
    <connection from="1117867038#0" to="682360554#0" fromLane="0" toLane="2" tl="42428297" linkIndex="6"/>
    <connection from="1117867038#0" to="682360554#0" fromLane="0" toLane="3" tl="42428297" linkIndex="7"/>
    <connection from="1117867040#1" to="194926851#0" fromLane="0" toLane="0" tl="42432700" linkIndex="0"/>
    <connection from="1117867040#1" to="1198594028#0" fromLane="0" toLane="0" tl="42432700" linkIndex="1"/>
    <connection from="1136952921#0" to="167922076#0" fromLane="0" toLane="0" tl="42428287" linkIndex="0"/>
    <connection from="1136952921#0" to="167922076#0" fromLane="1" toLane="1" tl="42428287" linkIndex="1"/>
    <connection from="1136952921#0" to="35027229#0" fromLane="2" toLane="0" tl="42428287" linkIndex="2"/>
    <connection from="1198594026#0" to="1198594027#0" fromLane="0" toLane="0" tl="42435671" linkIndex="0"/>
    <connection from="1198594026#0" to="1207834766#0" fromLane="1" toLane="0" tl="42435671" linkIndex="1"/>
    <connection from="1198594026#0" to="1207834766#0" fromLane="2" toLane="1" tl="42435671" linkIndex="2"/>
    <connection from="1198594027#0" to="397795464#0" fromLane="0" toLane="0" tl="42439984" linkIndex="4"/>
    <connection from="1198594027#0" to="397795464#0" fromLane="0" toLane="1" tl="42439984" linkIndex="5"/>
    <connection from="1198594027#0" to="1117867028" fromLane="0" toLane="0" tl="42439984" linkIndex="6"/>
    <connection from="1198594029#0" to="194926851#0" fromLane="0" toLane="0" tl="42432700" linkIndex="2"/>
    <connection from="1198594029#0" to="194926851#0" fromLane="1" toLane="1" tl="42432700" linkIndex="3"/>
    <connection from="1198594029#0" to="194926851#0" fromLane="2" toLane="2" tl="42432700" linkIndex="4"/>
    <connection from="1198594029#0" to="1198594028#0" fromLane="2" toLane="0" tl="42432700" linkIndex="5"/>
    <connection from="1211049194#0" to="569345537#0" fromLane="0" toLane="0" tl="42430361" linkIndex="3"/>
    <connection from="1211049194#0" to="569345537#0" fromLane="1" toLane="1" tl="42430361" linkIndex="4"/>
    <connection from="1211049194#0" to="569345537#0" fromLane="2" toLane="2" tl="42430361" linkIndex="5"/>
    <connection from="1211049194#0" to="569345537#0" fromLane="3" toLane="3" tl="42430361" linkIndex="6"/>
    <connection from="1211049194#0" to="569345538#0" fromLane="3" toLane="0" tl="42430361" linkIndex="7"/>
    <connection from="125479721#0" to="542258060#0" fromLane="0" toLane="0" tl="42435657" linkIndex="0"/>
    <connection from="125479721#0" to="542257430#0" fromLane="0" toLane="0" tl="42435657" linkIndex="1"/>
    <connection from="125479721#0" to="542257430#0" fromLane="1" toLane="1" tl="42435657" linkIndex="2"/>
    <connection from="125479721#0" to="542257430#0" fromLane="2" toLane="2" tl="42435657" linkIndex="3"/>
    <connection from="125479721#0" to="542257430#0" fromLane="3" toLane="3" tl="42435657" linkIndex="4"/>
    <connection from="125480075#0" to="1198594026#0" fromLane="0" toLane="0" tl="5849918504" linkIndex="2"/>
    <connection from="125480075#0" to="1198594026#0" fromLane="1" toLane="1" tl="5849918504" linkIndex="3"/>
    <connection from="125480075#0" to="1198594026#0" fromLane="2" toLane="2" tl="5849918504" linkIndex="4"/>
    <connection from="125480075#0" to="194926846#0" fromLane="3" toLane="0" tl="5849918504" linkIndex="5"/>
    <connection from="127693103#0" to="127693103#3" fromLane="0" toLane="0" tl="42430338" linkIndex="5"/>
    <connection from="127693103#0" to="127693103#3" fromLane="1" toLane="1" tl="42430338" linkIndex="6"/>
    <connection from="127693103#0" to="127693103#3" fromLane="2" toLane="2" tl="42430338" linkIndex="7"/>
    <connection from="127693103#0" to="127693103#3" fromLane="3" toLane="3" tl="42430338" linkIndex="8"/>
    <connection from="127693103#0" to="226041025#0" fromLane="3" toLane="1" tl="42430338" linkIndex="9"/>
    <connection from="127693103#0" to="226041025#0" fromLane="3" toLane="2" tl="42430338" linkIndex="10"/>
    <connection from="127693103#3" to="464515890#0" fromLane="0" toLane="0" tl="42430342" linkIndex="0"/>
    <connection from="127693103#3" to="464516471#0" fromLane="0" toLane="0" tl="42430342" linkIndex="1"/>
    <connection from="127693103#3" to="464516471#0" fromLane="1" toLane="1" tl="42430342" linkIndex="2"/>
    <connection from="127693103#3" to="464516471#0" fromLane="2" toLane="2" tl="42430342" linkIndex="3"/>
    <connection from="127693103#3" to="464516471#0" fromLane="3" toLane="3" tl="42430342" linkIndex="4"/>
    <connection from="1320234484#0" to="1320234484#3" fromLane="0" toLane="0" tl="42428307" linkIndex="0"/>
    <connection from="1320234484#0" to="1413159922#0" fromLane="0" toLane="0" tl="42428307" linkIndex="1"/>
    <connection from="1413159922#0" to="626514137#0" fromLane="0" toLane="0" tl="42428305" linkIndex="0"/>
    <connection from="1413159922#0" to="1413518738" fromLane="0" toLane="0" tl="42428305" linkIndex="1"/>
    <connection from="1413159922#0" to="167922074#0" fromLane="0" toLane="2" tl="42428305" linkIndex="2"/>
    <connection from="1413518739#0" to="452322757#3" fromLane="0" toLane="0" tl="joinedS_12989986305_42428303" linkIndex="0"/>
    <connection from="1413518739#0" to="-1413518739#1" fromLane="0" toLane="0" tl="joinedS_12989986305_42428303" linkIndex="1"/>
    <connection from="167922070#0" to="195743209#0" fromLane="0" toLane="0" tl="42439972" linkIndex="0"/>
    <connection from="167922070#0" to="195743344#0" fromLane="0" toLane="0" tl="42439972" linkIndex="1"/>
    <connection from="167922070#0" to="195743344#0" fromLane="1" toLane="1" tl="42439972" linkIndex="2"/>
    <connection from="167922070#0" to="195743344#0" fromLane="2" toLane="2" tl="42439972" linkIndex="3"/>
    <connection from="167922071#0" to="452322757#0" fromLane="0" toLane="0" tl="42439994" linkIndex="0"/>
    <connection from="167922071#0" to="483360105#0" fromLane="0" toLane="0" tl="42439994" linkIndex="1"/>
    <connection from="167922071#0" to="483360105#0" fromLane="1" toLane="1" tl="42439994" linkIndex="2"/>
    <connection from="167922071#0" to="483360105#0" fromLane="2" toLane="2" tl="42439994" linkIndex="3"/>
    <connection from="167922073#0" to="226041029#0" fromLane="0" toLane="0" tl="42430352" linkIndex="5"/>
    <connection from="167922073#0" to="464516471#13" fromLane="0" toLane="2" tl="42430352" linkIndex="6"/>
    <connection from="167922073#0" to="464516471#13" fromLane="0" toLane="3" tl="42430352" linkIndex="7"/>
    <connection from="167922074#0" to="167922071#0" fromLane="0" toLane="0" tl="42439996" linkIndex="4"/>
    <connection from="167922074#0" to="167922073#0" fromLane="1" toLane="0" tl="42439996" linkIndex="5"/>
    <connection from="167922076#0" to="525729008#0" fromLane="0" toLane="0" tl="42437363" linkIndex="4"/>
    <connection from="167922076#0" to="525729008#0" fromLane="1" toLane="1" tl="42437363" linkIndex="5"/>
    <connection from="167922076#0" to="-167922076#2" fromLane="1" toLane="1" tl="42437363" linkIndex="6"/>
    <connection from="194926846#0" to="194926847#0" fromLane="0" toLane="0" tl="42445011" linkIndex="6"/>
    <connection from="194926846#0" to="194926847#0" fromLane="0" toLane="1" tl="42445011" linkIndex="7"/>
    <connection from="194926846#0" to="1021047632#0" fromLane="0" toLane="2" tl="42445011" linkIndex="8"/>
    <connection from="194926846#0" to="1021047632#0" fromLane="0" toLane="3" tl="42445011" linkIndex="9"/>
    <connection from="194926846#0" to="1021047632#0" fromLane="0" toLane="4" tl="42445011" linkIndex="10"/>
    <connection from="194926851#0" to="846142553#0" fromLane="0" toLane="0" tl="42435675" linkIndex="0"/>
    <connection from="194926851#0" to="1198594030#0" fromLane="0" toLane="0" tl="42435675" linkIndex="1"/>
    <connection from="194926851#0" to="1198594030#0" fromLane="1" toLane="1" tl="42435675" linkIndex="2"/>
    <connection from="194926851#0" to="1198594030#0" fromLane="2" toLane="2" tl="42435675" linkIndex="3"/>
    <connection from="194926854#0" to="125479721#0" fromLane="0" toLane="0" tl="42435654" linkIndex="3"/>
    <connection from="194926854#0" to="125479721#0" fromLane="1" toLane="1" tl="42435654" linkIndex="4"/>
    <connection from="194926854#0" to="125479721#0" fromLane="2" toLane="2" tl="42435654" linkIndex="5"/>
    <connection from="194926854#0" to="125479721#0" fromLane="3" toLane="3" tl="42435654" linkIndex="6"/>
    <connection from="194926854#0" to="505317783#0" fromLane="3" toLane="0" tl="42435654" linkIndex="7"/>
    <connection from="195743209#0" to="195743345#0" fromLane="0" toLane="0" tl="42435660" linkIndex="0"/>
    <connection from="195743209#0" to="195743210" fromLane="0" toLane="0" tl="42435660" linkIndex="1"/>
    <connection from="226041025#0" to="569345543#0" fromLane="0" toLane="0" tl="GS_42439981" linkIndex="5"/>
    <connection from="226041025#0" to="569345543#0" fromLane="1" toLane="1" tl="GS_42439981" linkIndex="6"/>
    <connection from="226041025#0" to="569345544#0" fromLane="2" toLane="2" tl="GS_42439981" linkIndex="7"/>
    <connection from="226041025#0" to="569345544#0" fromLane="2" toLane="3" tl="GS_42439981" linkIndex="8"/>
    <connection from="226041027#0" to="1198594027#0" fromLane="0" toLane="0" tl="42435671" linkIndex="3"/>
    <connection from="226041027#0" to="1207834766#0" fromLane="0" toLane="1" tl="42435671" linkIndex="4"/>
    <connection from="226041028#0" to="626514137#0" fromLane="0" toLane="0" tl="42428305" linkIndex="6"/>
    <connection from="226041028#0" to="1413518738" fromLane="0" toLane="0" tl="42428305" linkIndex="7"/>
    <connection from="226041028#0" to="167922074#0" fromLane="0" toLane="0" tl="42428305" linkIndex="8"/>
    <connection from="226041028#0" to="167922074#0" fromLane="1" toLane="1" tl="42428305" linkIndex="9"/>
    <connection from="226041028#0" to="167922074#0" fromLane="1" toLane="2" tl="42428305" linkIndex="10"/>
    <connection from="226041029#0" to="384178816#3" fromLane="0" toLane="0" tl="42443528" linkIndex="5"/>
    <connection from="226041029#0" to="384178816#3" fromLane="0" toLane="1" tl="42443528" linkIndex="6"/>
    <connection from="226041029#0" to="5671629#0" fromLane="0" toLane="0" tl="42443528" linkIndex="7"/>
    <connection from="35027229#0" to="803047266#0" fromLane="0" toLane="0" tl="42428283" linkIndex="0"/>
    <connection from="35027229#0" to="803047267#0" fromLane="0" toLane="0" tl="42428283" linkIndex="1"/>
    <connection from="384178816#0" to="384178816#3" fromLane="0" toLane="0" tl="42443528" linkIndex="0"/>
    <connection from="384178816#0" to="384178816#3" fromLane="1" toLane="1" tl="42443528" linkIndex="1"/>
    <connection from="384178816#0" to="384178816#3" fromLane="2" toLane="2" tl="42443528" linkIndex="2"/>
    <connection from="384178816#0" to="384178816#3" fromLane="3" toLane="3" tl="42443528" linkIndex="3"/>
    <connection from="384178816#0" to="5671629#0" fromLane="3" toLane="0" tl="42443528" linkIndex="4"/>
    <connection from="384178816#3" to="5672036#0" fromLane="0" toLane="0" tl="42452353" linkIndex="0"/>
    <connection from="384178816#3" to="511699175#0" fromLane="1" toLane="0" tl="42452353" linkIndex="1"/>
    <connection from="384178816#3" to="511699175#0" fromLane="2" toLane="1" tl="42452353" linkIndex="2"/>
    <connection from="384178816#3" to="511699175#0" fromLane="3" toLane="2" tl="42452353" linkIndex="3"/>
    <connection from="397795463#0" to="1117867040#1" fromLane="0" toLane="0" tl="42428297" linkIndex="0"/>
    <connection from="397795463#0" to="682360554#0" fromLane="1" toLane="0" tl="42428297" linkIndex="1"/>
    <connection from="397795463#0" to="682360554#0" fromLane="2" toLane="1" tl="42428297" linkIndex="2"/>
    <connection from="397795463#0" to="682360554#0" fromLane="3" toLane="2" tl="42428297" linkIndex="3"/>
    <connection from="397795463#0" to="682360554#0" fromLane="4" toLane="3" tl="42428297" linkIndex="4"/>