<?xml version="1.0" encoding="UTF-8"?>

<!-- generated on 2026-03-13T13:04:38.214865+05:30 by Eclipse SUMO duarouter 1.26.0
<duarouterConfiguration xmlns:xsi="http://www.w3.org/2001/XMLSchema-instance" xsi:noNamespaceSchemaLocation="http://sumo.dlr.de/xsd/duarouterConfiguration.xsd">

    <input>
        <net-file value="manhattan.net.xml"/>
        <route-files value="trips_car.xml"/>
    </input>

    <output>
        <output-file value="routes_car.rou.xml"/>
    </output>

    <report>
        <ignore-errors value="true"/>
    </report>

</duarouterConfiguration>
-->

<routes xmlns:xsi="http://www.w3.org/2001/XMLSchema-instance" xsi:noNamespaceSchemaLocation="http://sumo.dlr.de/xsd/routes_file.xsd">
    <vType id="car__passenger" vClass="passenger"/>
    <vehicle id="car_0" type="car__passenger" depart="0.00">
        <route edges="46482609#0 226041027#0 1207834766#0 1198594029#0 194926851#0 1198594030#0 1027189508#0 1027189507#0 226041028#0 167922074#0 167922071#0 452322757#0 -1413518739#1"/>
    </vehicle>
    <vehicle id="car_1" type="car__passenger" depart="2.66">
        <route edges="1413159922#0 167922074#0 167922071#0 483360105#0 397795463#0 682360554#0 397795464#0 569345544#0 -167922076#2 -1136952921#1 -167922072#1 127693103#0 127693103#3"/>
    </vehicle>
    <vehicle id="car_2" type="car__passenger" depart="5.32">
        <route edges="542257982#0 125479721#0 542258060#0"/>
    </vehicle>
    <vehicle id="car_3" type="car__passenger" depart="7.98">
        <route edges="569345540#0 569345540#3 167922071#0 452322757#0 452322757#3 452322756#0 1027189507#0"/>
    </vehicle>
    <vehicle id="car_4" type="car__passenger" depart="10.64">
        <route edges="226041027#0 1207834766#0 1198594029#0 194926851#0 1198594030#0 1027189508#0 1027189507#0 226041028#0 167922074#0 167922071#0 452322757#0 -1413518739#1"/>
    </vehicle>
    <vehicle id="car_5" type="car__passenger" depart="13.30">
        <route edges="1198594029#0 194926851#0 846142553#0 420494981#0 1051744070#0 46522000#0 458180183#0 438397345#0"/>
    </vehicle>
    <vehicle id="car_6" type="car__passenger" depart="15.96">
        <route edges="-1320290376#1 -542259076#2 -1321771943#1 125480075#0 1198594026#0 1207834766#0"/>
    </vehicle>
    <vehicle id="car_7" type="car__passenger" depart="18.62">
        <route edges="46482609#0 226041027#0 1207834766#0 1198594029#0 194926851#0 1198594030#0 1027189508#0 1027189507#0 226041028#0 167922074#0 167922071#0 452322757#0"/>
    </vehicle>
    <vehicle id="car_8" type="car__passenger" depart="21.28">
        <route edges="1198594029#0 194926851#0 846142553#0 420494981#0 1051744070#0 464516471#6 464516471#9"/>
    </vehicle>
    <vehicle id="car_9" type="car__passenger" depart="23.94">
        <route edges="5672464#0 226041025#0 569345544#0 525729008#0 1321771943#0 542259076#0 1320290376#0 -1320290376#1 -542259076#2 -1321771943#1"/>
    </vehicle>
    <vehicle id="car_10" type="car__passenger" depart="26.60">
        <route edges="5672464#0 127693103#3 464516471#0 464516471#3 46522000#0 5670225#0"/>
    </vehicle>
    <vehicle id="car_11" type="car__passenger" depart="29.26">
        <route edges="167922072#0 1136952921#0 -1136952921#1 -167922072#1 127693103#0 127693103#3 464516471#0 1117867038#0"/>
    </vehicle>
    <vehicle id="car_12" type="car__passenger" depart="31.92">
        <route edges="846142552#0 1198594030#0 1027189508#0 1027189507#0 226041028#0 167922074#0 167922073#0"/>
    </vehicle>
    <vehicle id="car_13" type="car__passenger" depart="34.58">
        <route edges="1027189508#0 1027189507#0 226041028#0 167922074#0 167922071#0 483360105#0 397795463#0 682360554#0 397795464#0 569345543#0 1049845754#0"/>
    </vehicle>
    <vehicle id="car_14" type="car__passenger" depart="37.24">
        <route edges="5672464#0 127693103#3 464516471#0 464516471#3 464516471#6 464516471#9 464516471#13 464516471#16 5670867#0"/>
    </vehicle>
    <vehicle id="car_15" type="car__passenger" depart="39.90">
        <route edges="194926854#0 125479721#0 542257430#0 195743345#0 420907902#0 125480075#0 1198594026#0 1207834766#0 1198594029#0 194926851#0 846142553#0 420494981#0 1051744070#0 46522000#0 458180183#0"/>
    </vehicle>
    <vehicle id="car_16" type="car__passenger" depart="42.56">
        <route edges="505317789 542257430#0 195743345#0 420907902#0 -525729008#5 -167922076#2"/>
    </vehicle>
    <vehicle id="car_17" type="car__passenger" depart="45.22">
        <route edges="1198594030#0 1027189508#0 1027189507#0 226041028#0 167922074#0 167922071#0 483360105#0 397795463#0 682360554#0 397795464#0 569345544#0 525729008#0 1321771943#0"/>
    </vehicle>
    <vehicle id="car_18" type="car__passenger" depart="47.88">
        <route edges="-525729008#5 -167922076#2 -1136952921#1 -167922072#1 127693103#0 127693103#3 464516471#0 464516471#3 464516471#6 464516471#9 464516471#13 542258337#0 1051745205#0 1320234484#0"/>
    </vehicle>
    <vehicle id="car_19" type="car__passenger" depart="50.54">
        <route edges="1031879418#0 505317789 542257430#0 195743345#0 420907902#0 1321771943#0 542259076#0 1320290376#0"/>
    </vehicle>
    <vehicle id="car_20" type="car__passenger" depart="53.20">
        <route edges="464516471#9 464516471#13 542258337#0 1051745205#0 569345540#3 167922071#0 483360105#0 397795463#0 1117867040#1 1198594028#0 1051744778#0 968513231#0 968513229#0 194926847#0"/>
    </vehicle>
    <vehicle id="car_21" type="car__passenger" depart="55.86">
        <route edges="194926854#0 125479721#0"/>
    </vehicle>
    <vehicle id="car_22" type="car__passenger" depart="58.52">
        <route edges="1321771943#0 542259076#0 1320290376#0 -1320290376#1 -542259076#2 -1321771943#1 -525729008#5 -167922076#2 35027229#0 803047267#0"/>
    </vehicle>
    <vehicle id="car_23" type="car__passenger" depart="61.18">
        <route edges="1106482765#0 511699175#0 458180183#0 1061622295#0 5670124 464516471#3 464516471#6 464516471#9 464516471#13 464516471#16 5670867#0"/>
    </vehicle>
    <vehicle id="car_24" type="car__passenger" depart="63.84">
        <route edges="1106482765#0 511699175#0 458180183#0 1061622295#0 5670124 1117867038#0 1117867040#1 1198594028#0 1051744778#0 968513231#0 968513229#0 194926847#0"/>
    </vehicle>
    <vehicle id="car_25" type="car__passenger" depart="66.50">
        <route edges="452322757#0 452322757#3 452322756#0 1027189507#0 226041028#0 167922074#0 167922071#0 483360105#0 397795463#0 682360554#0 397795464#0 569345544#0 525729008#0 1321771943#0 542259076#0"/>
    </vehicle>
    <vehicle id="car_26" type="car__passenger" depart="69.16">
        <route edges="5673323#0 803047266#0 195743209#0 195743345#0 420907902#0 125480075#0 1198594026#0 1207834766#0 1198594029#0 194926851#0 846142553#0 420494981#0 1051744070#0 464516471#6 464516471#9 226041029#0 384178816#3 5672036#0"/>
    </vehicle>
    <vehicle id="car_27" type="car__passenger" depart="71.82">
        <route edges="1207834766#0 1198594029#0 194926851#0 1198594030#0 1027189508#0 1027189507#0 226041028#0 167922074#0 167922071#0 452322757#0 -1413518739#1"/>
    </vehicle>
    <vehicle id="car_28" type="car__passenger" depart="74.48">
        <route edges="167922072#0 1136952921#0 167922076#0 525729008#0 1321771943#0 542259076#0 1320290376#0"/>
    </vehicle>
    <vehicle id="car_29" type="car__passenger" depart="77.14">
        <route edges="1198594027#0 397795464#0 569345544#0 -167922076#2 35027229#0 803047267#0"/>
    </vehicle>
    <vehicle id="car_30" type="car__passenger" depart="79.80">
        <route edges="569345540#0 1320234484#0 1413159922#0 1413518738"/>
    </vehicle>
    <vehicle id="car_31" type="car__passenger" depart="82.46">
        <route edges="46482609#0 226041027#0 1198594027#0 397795464#0 569345544#0 167922070#0 195743209#0 195743210"/>
    </vehicle>
    <vehicle id="car_32" type="car__passenger" depart="85.12">
        <route edges="626514137#0 452322756#0 1027189507#0 226041028#0 167922074#0 167922073#0 226041029#0 384178816#3"/>
    </vehicle>
    <vehicle id="car_33" type="car__passenger" depart="87.78">
        <route edges="1320234484#0 1320234484#3"/>
    </vehicle>
    <vehicle id="car_34" type="car__passenger" depart="90.44">
        <route edges="452322757#3 452322756#0 1027189507#0 226041028#0 167922074#0 167922071#0 483360105#0 397795463#0 682360554#0 397795464#0 569345544#0 525729008#0 1321771943#0 542259076#0 1320290376#0"/>
    </vehicle>
    <vehicle id="car_35" type="car__passenger" depart="93.10">
        <route edges="458177130#0 1061622295#0 5670124 1117867038#0 682360554#0"/>
    </vehicle>
    <vehicle id="car_36" type="car__passenger" depart="95.76">
        <route edges="195743209#0 195743345#0 420907902#0 -525729008#5 -167922076#2 -1136952921#1 -167922072#1 127693103#0"/>
    </vehicle>
    <vehicle id="car_37" type="car__passenger" depart="98.42">
        <route edges="968513231#0 226041027#0 1207834766#0 1198594029#0 194926851#0 1198594030#0 1027189508#0 1027189507#0 226041028#0 167922074#0 167922071#0 452322757#0 452322757#3 452322756#0"/>
    </vehicle>
    <vehicle id="car_38" type="car__passenger" depart="101.08">
        <route edges="1027189507#0 226041028#0 167922074#0 167922071#0 483360105#0 397795463#0 682360554#0 397795464#0 569345544#0 -167922076#2"/>
    </vehicle>
    <vehicle id="car_39" type="car__passenger" depart="103.74">
        <route edges="5670124 1117867038#0 682360554#0 397795464#0 569345544#0 167922070#0 195743344#0"/>
    </vehicle>
    <vehicle id="car_40" type="car__passenger" depart="106.40">
        <route edges="-1413518738 167922074#0 167922071#0 483360105#0 397795463#0 1117867040#1 194926851#0"/>
    </vehicle>
    <vehicle id="car_41" type="car__passenger" depart="109.06">
        <route edges="968513231#0 226041027#0 1207834766#0 1198594029#0 194926851#0 1198594030#0 1027189508#0 452322756#4"/>
    </vehicle>
    <vehicle id="car_42" type="car__passenger" depart="111.72">
        <route edges="846142552#0 846142553#0 397795463#0 682360554#0 397795464#0 569345544#0"/>
    </vehicle>
    <vehicle id="car_43" type="car__passenger" depart="114.38">
        <route edges="-1320290376#1 -542259076#2 -1321771943#1 125480075#0 1198594026#0 1207834766#0 1198594029#0 194926851#0 846142553#0 420494981#0 1051744070#0 464516471#6 464516471#9 464516471#13 464516471#16 5670867#0"/>
    </vehicle>
    <vehicle id="car_44" type="car__passenger" depart="117.04">
        <route edges="1321771943#0 542259076#0 1320290376#0 -1320290376#1 -542259076#2 -1321771943#1 -525729008#5 525729008#0"/>
    </vehicle>
    <vehicle id="car_45" type="car__passenger" depart="119.70">
        <route edges="1031879418#0 505317789 542257430#0 195743345#0 420907902#0 125480075#0 1198594026#0 1207834766#0 1198594029#0 1198594028#0 1051744778#0 968513231#0 226041027#0"/>
    </vehicle>
    <vehicle id="car_46" type="car__passenger" depart="122.36">
        <route edges="384178816#0 384178816#3 511699175#0 458180183#0 1061622295#0 5670124 1117867038#0 682360554#0 397795464#0 569345544#0 -167922076#2 35027229#0 803047267#0"/>
    </vehicle>
    <vehicle id="car_47" type="car__passenger" depart="125.02">
        <route edges="569345540#0 569345540#3 167922071#0 483360105#0 397795463#0 682360554#0 397795464#0 569345544#0 525729008#0 1321771943#0 542259076#0 1320290376#0"/>
    </vehicle>
    <vehicle id="car_48" type="car__passenger" depart="127.68">
        <route edges="420907908#0 968513231#0 226041027#0 1198594027#0"/>
    </vehicle>
    <vehicle id="car_49" type="car__passenger" depart="130.34">
        <route edges="569345544#0 167922070#0 195743344#0 569345545#0"/>
    </vehicle>
    <vehicle id="car_50" type="car__passenger" depart="133.00">
        <route edges="1413518739#0 452322757#3 452322756#0 1027189507#0 226041028#0 167922074#0 167922073#0 226041029#0 384178816#3 511699175#0"/>
    </vehicle>
    <vehicle id="car_51" type="car__passenger" depart="135.66">
        <route edges="464516471#13 542258337#0 1051745205#0 569345540#3 167922071#0 483360105#0 397795463#0 682360554#0 1117867028"/>
    </vehicle>
    <vehicle id="car_52" type="car__passenger" depart="138.32">
        <route edges="5670114#0 542258337#0 1051745205#0 569345540#3 167922071#0 452322757#0 452322757#3 452322756#0 452322756#4"/>
    </vehicle>
    <vehicle id="car_53" type="car__passenger" depart="140.98">
        <route edges="5670114#0 542258337#0 1051745205#0 569345540#3 167922071#0 452322757#0 452322757#3 452322756#0 452322756#4"/>
    </vehicle>
    <vehicle id="car_54" type="car__passenger" depart="143.64">
        <route edges="-1136952921#1 -167922072#1 167922072#0 1136952921#0 167922076#0 167922070#0"/>
    </vehicle>
    <vehicle id="car_55" type="car__passenger" depart="146.30">
        <route edges="-1320290376#1 -542259076#2 -1321771943#1 -525729008#5 -167922076#2 35027229#0 803047266#0"/>
    </vehicle>
    <vehicle id="car_56" type="car__passenger" depart="148.96">
        <route edges="569345540#0 569345540#3 167922073#0 464516471#13 464516471#16 1211049194#0 569345538#0"/>
    </vehicle>
    <vehicle id="car_57" type="car__passenger" depart="151.62">
        <route edges="167922070#0 195743209#0 195743345#0 420907902#0 1321771943#0 542259076#0 1320290376#0 -1320290376#1 -542259076#2"/>
    </vehicle>
    <vehicle id="car_58" type="car__passenger" depart="154.28">
        <route edges="569345540#0 569345540#3 167922071#0 483360105#0 397795463#0 682360554#0 397795464#0 569345544#0 -167922076#2 35027229#0 803047267#0"/>
    </vehicle>
    <vehicle id="car_59" type="car__passenger" depart="156.94">
        <route edges="-542259076#2 -1321771943#1 125480075#0 1198594026#0 1207834766#0 1198594029#0 194926851#0 846142553#0 420494981#0 1051744070#0 46522000#0 458180183#0 438397345#0"/>
    </vehicle>
    <vehicle id="car_60" type="car__passenger" depart="159.60">
        <route edges="-167922072#1 127693103#0 127693103#3 464516471#0 464516471#3 464516471#6 464516471#9 226041029#0 5671629#0"/>
    </vehicle>
    <vehicle id="car_61" type="car__passenger" depart="162.26">
        <route edges="5670114#0 542258337#0 1051745205#0 569345540#3 167922071#0 483360105#0 397795463#0 682360554#0 1117867028 464515890#0 1051846230#0"/>
    </vehicle>
    <vehicle id="car_62" type="car__passenger" depart="164.92">
        <route edges="397795463#0 1117867040#1 194926851#0 1198594030#0 1027189508#0 1027189507#0 226041028#0 167922074#0 167922071#0 452322757#0 452322757#3"/>
    </vehicle>
    <vehicle id="car_63" type="car__passenger" depart="167.58">
        <route edges="1320234484#0 1413159922#0 167922074#0 167922071#0 483360105#0 397795463#0 682360554#0 397795464#0 569345544#0 167922070#0 195743344#0 569345545#0"/>
    </vehicle>
    <vehicle id="car_64" type="car__passenger" depart="170.24">
        <route edges="226041027#0 1198594027#0 397795464#0 569345544#0 525729008#0 125480075#0"/>
    </vehicle>
    <vehicle id="car_65" type="car__passenger" depart="172.90">
        <route edges="420908138#0 5670867#0"/>
    </vehicle>
    <vehicle id="car_66" type="car__passenger" depart="175.56">
        <route edges="1198594026#0 1207834766#0 1198594029#0 194926851#0 1198594030#0 1027189508#0 1027189507#0 226041028#0 1413518738"/>
    </vehicle>
    <vehicle id="car_67" type="car__passenger" depart="178.22">
        <route edges="35027229#0 803047266#0 195743209#0 195743345#0 420907902#0 125480075#0 1198594026#0 1207834766#0 1198594029#0 194926851#0 1198594030#0 1027189508#0 452322756#4"/>
    </vehicle>
    <vehicle id="car_68" type="car__passenger" depart="180.88">
        <route edges="1031879418#0 505317789 542257430#0 195743345#0 420907902#0 -525729008#5 -167922076#2 -1136952921#1 -167922072#1 127693103#0 127693103#3"/>
    </vehicle>
    <vehicle id="car_69" type="car__passenger" depart="183.54">
        <route edges="167922072#0 1136952921#0 -1136952921#1 -167922072#1 127693103#0 127693103#3 464516471#0 464516471#3 464516471#6 464516471#9"/>
    </vehicle>
    <vehicle id="car_70" type="car__passenger" depart="186.20">
        <route edges="1207834766#0 1198594029#0 194926851#0 846142553#0 397795463#0 682360554#0 397795464#0 569345544#0 -167922076#2 -1136952921#1 -167922072#1 127693103#0"/>
    </vehicle>
    <vehicle id="car_71" type="car__passenger" depart="188.86">
        <route edges="1207834766#0 1198594029#0 194926851#0 846142553#0 420494981#0 1051744070#0 464516471#6 464516471#9 464516471#13 464516471#16 1211049194#0 569345537#0 717625447#4"/>
    </vehicle>
    <vehicle id="car_72" type="car__passenger" depart="191.52">
        <route edges="1198594028#0 1051744778#0 968513231#0 226041027#0 1198594027#0 1117867028 464515890#0 1051846230#0"/>
    </vehicle>
    <vehicle id="car_73" type="car__passenger" depart="194.18">
        <route edges="5672464#0 226041025#0 569345543#0 1049845754#0 1198594026#0 1207834766#0 1198594029#0"/>
    </vehicle>
    <vehicle id="car_74" type="car__passenger" depart="196.84">
        <route edges="1027189508#0 1027189507#0 226041028#0 167922074#0 167922071#0 483360105#0 397795463#0 682360554#0 397795464#0 569345544#0 -167922076#2 -1136952921#1 -167922072#1 127693103#0 226041025#0"/>
    </vehicle>
    <vehicle id="car_75" type="car__passenger" depart="199.50">
        <route edges="226041027#0 1198594027#0 397795464#0"/>
    </vehicle>
    <vehicle id="car_76" type="car__passenger" depart="202.16">
        <route edges="542257982#0 125479721#0 542258060#0"/>
    </vehicle>
    <vehicle id="car_77" type="car__passenger" depart="204.82">
        <route edges="846142553#0 397795463#0 682360554#0 397795464#0 569345543#0 1049845754#0"/>
    </vehicle>
    <vehicle id="car_78" type="car__passenger" depart="207.48">
        <route edges="1117867038#0 682360554#0 1117867028 464516471#0 464516471#3 464516471#6 464516471#9 226041029#0"/>
    </vehicle>
    <vehicle id="car_79" type="car__passenger" depart="210.14">
        <route edges="226041027#0 1198594027#0 397795464#0 569345544#0 525729008#0 1321771943#0 542259076#0 1320290376#0"/>
    </vehicle>
    <vehicle id="car_80" type="car__passenger" depart="212.80">
        <route edges="125480075#0 1198594026#0 1207834766#0 1198594029#0 194926851#0 846142553#0 420494981#0 1051744070#0 464516471#6 464516471#9 464516471#13 464516471#16 1211049194#0 569345537#0 717625447#4"/>
    </vehicle>
    <vehicle id="car_81" type="car__passenger" depart="215.46">
        <route edges="384178816#0 384178816#3 511699175#0 458180183#0 1061622295#0 5670124 1117867038#0 682360554#0 397795464#0 569345544#0"/>
    </vehicle>
    <vehicle id="car_82" type="car__passenger" depart="218.12">
        <route edges="452322756#0 1027189507#0 226041028#0 167922074#0 167922071#0 483360105#0 397795463#0 682360554#0 397795464#0 569345544#0 525729008#0 -525729008#5"/>
    </vehicle>
    <vehicle id="car_83" type="car__passenger" depart="220.78">
        <route edges="968513231#0 226041027#0 1207834766#0 1198594029#0 194926851#0 846142553#0 420494981#0 1051744070#0 464516471#6 464516471#9 464516471#13 464516471#16 1211049194#0 569345538#0"/>
    </vehicle>
    <vehicle id="car_84" type="car__passenger" depart="223.44">
        <route edges="846142552#0 846142553#0 397795463#0 682360554#0 397795464#0 569345544#0 -167922076#2 35027229#0 803047266#0"/>
    </vehicle>
    <vehicle id="car_85" type="car__passenger" depart="226.10">
        <route edges="5673323#0 803047266#0 195743209#0 195743345#0 420907902#0 -525729008#5 -167922076#2 -1136952921#1 -167922072#1 167922072#0 1136952921#0"/>
    </vehicle>
    <vehicle id="car_86" type="car__passenger" depart="228.76">
        <route edges="420494981#0 1051744070#0 46522000#0 458180183#0 1061622295#0 5670124 1117867038#0 682360554#0 397795464#0 569345544#0 525729008#0 125480075#0"/>
    </vehicle>
    <vehicle id="car_87" type="car__passenger" depart="231.42">
        <route edges="195743209#0 195743345#0 420907902#0 125480075#0 194926846#0 1021047632#0"/>
    </vehicle>
    <vehicle id="car_88" type="car__passenger" depart="234.08">
        <route edges="194926854#0 125479721#0 542257430#0 195743345#0 420907902#0 125480075#0 1198594026#0 1207834766#0 1198594029#0 1198594028#0 1051744778#0 968513230#0"/>
    </vehicle>
    <vehicle id="car_89" type="car__passenger" depart="236.74">
        <route edges="384178816#0 384178816#3 511699175#0 458180183#0 1061622295#0 5670124 1117867038#0 682360554#0 397795464#0 569345544#0 167922070#0 195743344#0"/>
    </vehicle>
    <vehicle id="car_90" type="car__passenger" depart="239.40">
        <route edges="846142552#0 846142553#0 397795463#0 1117867040#1 1198594028#0 1051744778#0 968513231#0"/>
    </vehicle>
    <vehicle id="car_91" type="car__passenger" depart="242.06">
        <route edges="452322757#0 452322757#3 452322756#0 1027189507#0 226041028#0 167922074#0 167922071#0 483360105#0 420494981#0 1051744070#0 46522000#0 5670225#0"/>
    </vehicle>
    <vehicle id="car_92" type="car__passenger" depart="244.72">
        <route edges="1106482765#0 511699175#0 458180183#0 1061622295#0 5670124 464516471#3 464516471#6 464516471#9 464516471#13 542258337#0 1051745205#0 1320234484#0 1413159922#0 1413518738"/>
    </vehicle>
    <vehicle id="car_93" type="car__passenger" depart="247.38">
        <route edges="846142552#0 846142553#0 420494981#0 1051744070#0 46522000#0 458180183#0 1061622295#0 5670124 464516471#3"/>
    </vehicle>
    <vehicle id="car_94" type="car__passenger" depart="250.04">
        <route edges="-1413518738 167922074#0 167922071#0 483360105#0 420494981#0 1051744070#0 464516471#6"/>
    </vehicle>
    <vehicle id="car_95" type="car__passenger" depart="252.70">
        <route edges="420907908#0 968513231#0 226041027#0 1198594027#0 397795464#0 569345543#0"/>
    </vehicle>
    <vehicle id="car_96" type="car__passenger" depart="255.36">
        <route edges="1106482765#0 511699175#0 458180183#0 1061622295#0 5670124 1117867038#0 1117867040#1 194926851#0 846142553#0"/>
    </vehicle>
    <vehicle id="car_97" type="car__passenger" depart="258.02">
        <route edges="-525729008#5 525729008#0 125480075#0 1198594026#0 1207834766#0 1198594029#0"/>
    </vehicle>
    <vehicle id="car_98" type="car__passenger" depart="260.68">
        <route edges="569345540#0 1320234484#0 1320234484#3"/>
    </vehicle>
    <vehicle id="car_99" type="car__passenger" depart="263.34">
        <route edges="226041027#0 1207834766#0 1198594029#0 194926851#0 846142553#0 420494981#0 1051744070#0 464516471#6"/>
    </vehicle>
    <vehicle id="car_100" type="car__passenger" depart="266.00">
        <route edges="1198594026#0 1207834766#0 1198594029#0 194926851#0 846142553#0 420494981#0 1051744070#0 46522000#0 5670225#0"/>
    </vehicle>
    <vehicle id="car_101" type="car__passenger" depart="268.66">
        <route edges="167922072#0 1136952921#0 -1136952921#1 -167922072#1 127693103#0 127693103#3 464516471#0 464516471#3 464516471#6 464516471#9 226041029#0 5671629#0"/>
    </vehicle>
    <vehicle id="car_102" type="car__passenger" depart="271.32">
        <route edges="-167922076#2 -1136952921#1 -167922072#1 127693103#0 127693103#3 464516471#0 464516471#3 464516471#6 464516471#9 226041029#0 384178816#3"/>
    </vehicle>
    <vehicle id="car_103" type="car__passenger" depart="273.98">
        <route edges="968513231#0"/>
    </vehicle>
    <vehicle id="car_104" type="car__passenger" depart="276.64">
        <route edges="-167922076#2 167922076#0 525729008#0 125480075#0"/>
    </vehicle>
    <vehicle id="car_105" type="car__passenger" depart="279.30">
        <route edges="1320234484#0 1413159922#0 167922074#0 167922071#0 483360105#0 397795463#0 682360554#0 397795464#0 569345544#0 -167922076#2 35027229#0 803047267#0"/>
    </vehicle>
    <vehicle id="car_106" type="car__passenger" depart="281.96">
        <route edges="569345540#0 569345540#3 167922071#0 483360105#0 397795463#0 682360554#0 397795464#0 569345544#0 167922070#0 195743344#0 569345545#0"/>
    </vehicle>
    <vehicle id="car_107" type="car__passenger" depart="284.62">
        <route edges="194926851#0 846142553#0 420494981#0 1051744070#0 46522000#0 458180183#0 1061622295#0 5670124 1117867038#0"/>
    </vehicle>
    <vehicle id="car_108" type="car__passenger" depart="287.28">
        <route edges="5673323#0 803047266#0 195743209#0 195743345#0 420907902#0 125480075#0 1198594026#0 1207834766#0 1198594029#0 194926851#0 846142553#0 420494981#0 1051744070#0 46522000#0 5670225#0"/>
    </vehicle>
    <vehicle id="car_109" type="car__passenger" depart="289.94">
        <route edges="464516471#13 542258337#0 1051745205#0 569345540#3 167922071#0 483360105#0 397795463#0 1117867040#1 1198594028#0 1051744778#0 968513230#0"/>
    </vehicle>
    <vehicle id="car_110" type="car__passenger" depart="292.60">
        <route edges="46482609#0 226041027#0 1198594027#0 397795464#0 569345544#0 525729008#0 1321771943#0 542259076#0 1320290376#0 -1320290376#1 -542259076#2 -1321771943#1"/>
    </vehicle>
    <vehicle id="car_111" type="car__passenger" depart="295.26">
        <route edges="5672464#0 127693103#3 464516471#0 464516471#3 464516471#6 464516471#9 464516471#13 542258337#0 1051745205#0 1320234484#0 1413159922#0 1413518738"/>
    </vehicle>
    <vehicle id="car_112" type="car__passenger" depart="297.92">
        <route edges="46522000#0 458180183#0 1061622295#0 5670124 1117867038#0 682360554#0 397795464#0 569345544#0 -167922076#2 35027229#0 803047267#0"/>
    </vehicle>
    <vehicle id="car_113" type="car__passenger" depart="300.58">
        <route edges="1051744070#0 464516471#6 464516471#9 464516471#13 542258337#0 1051745205#0"/>
    </vehicle>
    <vehicle id="car_114" type="car__passenger" depart="303.24">
        <route edges="1031879418#0 505317789 542257430#0 195743345#0 420907902#0 125480075#0 1198594026#0 1207834766#0 1198594029#0 194926851#0 846142553#0 420494981#0 1051744070#0 46522000#0 458180183#0"/>
    </vehicle>
    <vehicle id="car_115" type="car__passenger" depart="305.90">
        <route edges="542257430#0 195743345#0 420907902#0 125480075#0 1198594026#0 1207834766#0 1198594029#0 194926851#0 846142553#0 420494981#0 1051744070#0 464516471#6 464516471#9 464516471#13 464516471#16 1211049194#0"/>
    </vehicle>
    <vehicle id="car_116" type="car__passenger" depart="308.56">
        <route edges="464516471#9 464516471#13 542258337#0 1051745205#0 569345540#3 167922071#0 483360105#0 397795463#0 682360554#0 397795464#0 569345544#0 525729008#0 1321771943#0 542259076#0 1320290376#0"/>
    </vehicle>
    <vehicle id="car_117" type="car__passenger" depart="311.22">
        <route edges="420494981#0 1051744070#0 464516471#6 464516471#9 464516471#13 464516471#16 1211049194#0 569345537#0 717625447#4"/>
    </vehicle>
    <vehicle id="car_118" type="car__passenger" depart="313.88">
        <route edges="5673323#0 803047266#0 195743209#0 195743345#0 420907902#0 125480075#0 1198594026#0 1207834766#0 1198594029#0 194926851#0 1198594030#0 1027189508#0"/>
    </vehicle>
    <vehicle id="car_119" type="car__passenger" depart="316.54">
        <route edges="226041027#0 1198594027#0 397795464#0 569345544#0 525729008#0 1321771943#0 542259076#0 1320290376#0"/>
    </vehicle>
    <vehicle id="car_120" type="car__passenger" depart="319.20">
        <route edges="-1136952921#1 -167922072#1 127693103#0 127693103#3 464516471#0 464516471#3 464516471#6 464516471#9 226041029#0 5671629#0"/>
    </vehicle>
    <vehicle id="car_121" type="car__passenger" depart="321.86">
        <route edges="46482609#0 226041027#0 1198594027#0 397795464#0 569345544#0 525729008#0 1321771943#0 542259076#0 1320290376#0"/>
    </vehicle>
    <vehicle id="car_122" type="car__passenger" depart="324.52">
        <route edges="542257982#0 125479721#0 542257430#0 195743345#0 420907902#0 125480075#0 1198594026#0 1207834766#0 1198594029#0 194926851#0 846142553#0 420494981#0 1051744070#0 46522000#0 458180183#0"/>
    </vehicle>
    <vehicle id="car_123" type="car__passenger" depart="327.18">
        <route edges="226041028#0 167922074#0 167922071#0 483360105#0 397795463#0 682360554#0 397795464#0 569345544#0 525729008#0 1321771943#0 542259076#0 1320290376#0 -1320290376#1 -542259076#2 -1321771943#1"/>
    </vehicle>
    <vehicle id="car_124" type="car__passenger" depart="329.84">
        <route edges="-167922076#2 35027229#0 803047266#0 195743344#0 569345545#0"/>
    </vehicle>
    <vehicle id="car_125" type="car__passenger" depart="332.50">
        <route edges="569345543#0 1049845754#0 1198594026#0 1207834766#0 1198594029#0 194926851#0 1198594030#0 1027189508#0 1027189507#0 226041028#0 167922074#0 167922071#0 452322757#0 452322757#3"/>
    </vehicle>
    <vehicle id="car_126" type="car__passenger" depart="335.16">
        <route edges="5673323#0 803047266#0 195743209#0 195743345#0 420907902#0 125480075#0 1198594026#0 1207834766#0 1198594029#0 194926851#0 846142553#0 420494981#0 1051744070#0 464516471#6"/>
    </vehicle>
    <vehicle id="car_127" type="car__passenger" depart="337.82">
        <route edges="1061622295#0 5670124 1117867038#0 682360554#0 1117867028 464515890#0 1051846230#0"/>
    </vehicle>
    <vehicle id="car_128" type="car__passenger" depart="340.48">
        <route edges="167922070#0 195743209#0 195743345#0 420907902#0 125480075#0 1198594026#0 1207834766#0 1198594029#0 194926851#0 846142553#0 397795463#0 682360554#0"/>
    </vehicle>
    <vehicle id="car_129" type="car__passenger" depart="343.14">
        <route edges="5672036#0 5672036#3 483360105#0 397795463#0 682360554#0 397795464#0 569345544#0"/>
    </vehicle>
    <vehicle id="car_130" type="car__passenger" depart="345.80">
        <route edges="125480075#0 1198594026#0 1207834766#0 1198594029#0 194926851#0 846142553#0 420494981#0 1051744070#0"/>
    </vehicle>
    <vehicle id="car_131" type="car__passenger" depart="348.46">
        <route edges="5670114#0 542258337#0 1051745205#0 569345540#3 167922071#0 483360105#0 397795463#0 682360554#0 397795464#0 569345544#0 167922070#0 195743344#0 569345545#0"/>
    </vehicle>