<?xml version="1.0" encoding="UTF-8"?>

<!-- generated on 2026-03-13T13:04:35.241849+05:30 by Eclipse SUMO duarouter 1.26.0
<duarouterConfiguration xmlns:xsi="http://www.w3.org/2001/XMLSchema-instance" xsi:noNamespaceSchemaLocation="http://sumo.dlr.de/xsd/duarouterConfiguration.xsd">

    <input>
        <net-file value="manhattan.net.xml"/>
        <route-files value="trips_moto.xml"/>
    </input>

    <output>
        <output-file value="routes_moto.rou.xml"/>
    </output>

    <report>
        <ignore-errors value="true"/>
    </report>

</duarouterConfiguration>
-->

<routes xmlns:xsi="http://www.w3.org/2001/XMLSchema-instance" xsi:noNamespaceSchemaLocation="http://sumo.dlr.de/xsd/routes_file.xsd">
    <vType id="moto__motorcycle" vClass="motorcycle"/>
    <vehicle id="moto_0" type="moto__motorcycle" depart="0.00">
        <route edges="46482609#0 226041027#0 1207834766#0 1198594029#0 194926851#0 1198594030#0 1027189508#0 1027189507#0 226041028#0 167922074#0 167922071#0 452322757#0 -1413518739#1"/>
    </vehicle>
    <vehicle id="moto_1" type="moto__motorcycle" depart="1.00">
        <route edges="1413159922#0 167922074#0 167922071#0 483360105#0 397795463#0 682360554#0 397795464#0 569345544#0 -167922076#2 -1136952921#1 -167922072#1 127693103#0 127693103#3"/>
    </vehicle>
    <vehicle id="moto_2" type="moto__motorcycle" depart="2.00">
        <route edges="542257982#0 125479721#0 542258060#0"/>
    </vehicle>
    <vehicle id="moto_3" type="moto__motorcycle" depart="3.00">
        <route edges="569345540#0 569345540#3 167922071#0 452322757#0 452322757#3 452322756#0 1027189507#0"/>
    </vehicle>
    <vehicle id="moto_4" type="moto__motorcycle" depart="4.00">
        <route edges="226041027#0 1207834766#0 1198594029#0 194926851#0 1198594030#0 1027189508#0 1027189507#0 226041028#0 167922074#0 167922071#0 452322757#0 -1413518739#1"/>
    </vehicle>
    <vehicle id="moto_5" type="moto__motorcycle" depart="5.00">
        <route edges="1198594029#0 194926851#0 846142553#0 420494981#0 1051744070#0 46522000#0 458180183#0 438397345#0"/>
    </vehicle>
    <vehicle id="moto_6" type="moto__motorcycle" depart="6.00">
        <route edges="-1320290376#1 -542259076#2 -1321771943#1 125480075#0 1198594026#0 1207834766#0"/>
    </vehicle>
    <vehicle id="moto_7" type="moto__motorcycle" depart="7.00">
        <route edges="46482609#0 226041027#0 1207834766#0 1198594029#0 194926851#0 1198594030#0 1027189508#0 1027189507#0 226041028#0 167922074#0 167922071#0 452322757#0"/>
    </vehicle>
    <vehicle id="moto_8" type="moto__motorcycle" depart="8.00">
        <route edges="1198594029#0 194926851#0 846142553#0 420494981#0 1051744070#0 464516471#6 464516471#9"/>
    </vehicle>
    <vehicle id="moto_9" type="moto__motorcycle" depart="9.00">
        <route edges="5672464#0 226041025#0 569345544#0 525729008#0 1321771943#0 542259076#0 1320290376#0 -1320290376#1 -542259076#2 -1321771943#1"/>
    </vehicle>
    <vehicle id="moto_10" type="moto__motorcycle" depart="10.00">
        <route edges="5672464#0 127693103#3 464516471#0 464516471#3 46522000#0 5670225#0"/>
    </vehicle>
    <vehicle id="moto_11" type="moto__motorcycle" depart="11.00">
        <route edges="167922072#0 1136952921#0 -1136952921#1 -167922072#1 127693103#0 127693103#3 464516471#0 1117867038#0"/>
    </vehicle>
    <vehicle id="moto_12" type="moto__motorcycle" depart="12.00">
        <route edges="846142552#0 1198594030#0 1027189508#0 1027189507#0 226041028#0 167922074#0 167922073#0"/>
    </vehicle>
    <vehicle id="moto_13" type="moto__motorcycle" depart="13.00">
        <route edges="1027189508#0 1027189507#0 226041028#0 167922074#0 167922071#0 483360105#0 397795463#0 682360554#0 397795464#0 569345543#0 1049845754#0"/>
    </vehicle>
    <vehicle id="moto_14" type="moto__motorcycle" depart="14.00">
        <route edges="5672464#0 127693103#3 464516471#0 464516471#3 464516471#6 464516471#9 464516471#13 464516471#16 5670867#0"/>
    </vehicle>
    <vehicle id="moto_15" type="moto__motorcycle" depart="15.00">
        <route edges="194926854#0 125479721#0 542257430#0 195743345#0 420907902#0 125480075#0 1198594026#0 1207834766#0 1198594029#0 194926851#0 846142553#0 420494981#0 1051744070#0 46522000#0 458180183#0"/>
    </vehicle>
    <vehicle id="moto_16" type="moto__motorcycle" depart="16.00">
        <route edges="505317789 542257430#0 195743345#0 420907902#0 -525729008#5 -167922076#2"/>
    </vehicle>
    <vehicle id="moto_17" type="moto__motorcycle" depart="17.00">
        <route edges="1198594030#0 1027189508#0 1027189507#0 226041028#0 167922074#0 167922071#0 483360105#0 397795463#0 682360554#0 397795464#0 569345544#0 525729008#0 1321771943#0"/>
    </vehicle>
    <vehicle id="moto_18" type="moto__motorcycle" depart="18.00">
        <route edges="-525729008#5 -167922076#2 -1136952921#1 -167922072#1 127693103#0 127693103#3 464516471#0 464516471#3 464516471#6 464516471#9 464516471#13 542258337#0 1051745205#0 1320234484#0"/>
    </vehicle>
    <vehicle id="moto_19" type="moto__motorcycle" depart="19.00">
        <route edges="1031879418#0 505317789 542257430#0 195743345#0 420907902#0 1321771943#0 542259076#0 1320290376#0"/>
    </vehicle>
    <vehicle id="moto_20" type="moto__motorcycle" depart="20.00">
        <route edges="464516471#9 464516471#13 542258337#0 1051745205#0 569345540#3 167922071#0 483360105#0 397795463#0 1117867040#1 1198594028#0 1051744778#0 968513231#0 968513229#0 194926847#0"/>
    </vehicle>
    <vehicle id="moto_21" type="moto__motorcycle" depart="21.00">
        <route edges="194926854#0 125479721#0"/>
    </vehicle>
    <vehicle id="moto_22" type="moto__motorcycle" depart="22.00">
        <route edges="1321771943#0 542259076#0 1320290376#0 -1320290376#1 -542259076#2 -1321771943#1 -525729008#5 -167922076#2 35027229#0 803047267#0"/>
    </vehicle>
    <vehicle id="moto_23" type="moto__motorcycle" depart="23.00">
        <route edges="1106482765#0 511699175#0 458180183#0 1061622295#0 5670124 464516471#3 464516471#6 464516471#9 464516471#13 464516471#16 5670867#0"/>
    </vehicle>
    <vehicle id="moto_24" type="moto__motorcycle" depart="24.00">
        <route edges="1106482765#0 511699175#0 458180183#0 1061622295#0 5670124 1117867038#0 1117867040#1 1198594028#0 1051744778#0 968513231#0 968513229#0 194926847#0"/>
    </vehicle>
    <vehicle id="moto_25" type="moto__motorcycle" depart="25.00">
        <route edges="452322757#0 452322757#3 452322756#0 1027189507#0 226041028#0 167922074#0 167922071#0 483360105#0 397795463#0 682360554#0 397795464#0 569345544#0 525729008#0 1321771943#0 542259076#0"/>
    </vehicle>
    <vehicle id="moto_26" type="moto__motorcycle" depart="26.00">
        <route edges="5673323#0 803047266#0 195743209#0 195743345#0 420907902#0 125480075#0 1198594026#0 1207834766#0 1198594029#0 194926851#0 846142553#0 420494981#0 1051744070#0 464516471#6 464516471#9 226041029#0 384178816#3 5672036#0"/>
    </vehicle>
    <vehicle id="moto_27" type="moto__motorcycle" depart="27.00">
        <route edges="1207834766#0 1198594029#0 194926851#0 1198594030#0 1027189508#0 1027189507#0 226041028#0 167922074#0 167922071#0 452322757#0 -1413518739#1"/>
    </vehicle>
    <vehicle id="moto_28" type="moto__motorcycle" depart="28.00">
        <route edges="167922072#0 1136952921#0 167922076#0 525729008#0 1321771943#0 542259076#0 1320290376#0"/>
    </vehicle>
    <vehicle id="moto_29" type="moto__motorcycle" depart="29.00">
        <route edges="1198594027#0 397795464#0 569345544#0 -167922076#2 35027229#0 803047267#0"/>
    </vehicle>
    <vehicle id="moto_30" type="moto__motorcycle" depart="30.00">
        <route edges="569345540#0 1320234484#0 1413159922#0 1413518738"/>
    </vehicle>
    <vehicle id="moto_31" type="moto__motorcycle" depart="31.00">
        <route edges="46482609#0 226041027#0 1198594027#0 397795464#0 569345544#0 167922070#0 195743209#0 195743210"/>
    </vehicle>
    <vehicle id="moto_32" type="moto__motorcycle" depart="32.00">
        <route edges="626514137#0 452322756#0 1027189507#0 226041028#0 167922074#0 167922073#0 226041029#0 384178816#3"/>
    </vehicle>
    <vehicle id="moto_33" type="moto__motorcycle" depart="33.00">
        <route edges="1320234484#0 1320234484#3"/>
    </vehicle>
    <vehicle id="moto_34" type="moto__motorcycle" depart="34.00">
        <route edges="452322757#3 452322756#0 1027189507#0 226041028#0 167922074#0 167922071#0 483360105#0 397795463#0 682360554#0 397795464#0 569345544#0 525729008#0 1321771943#0 542259076#0 1320290376#0"/>
    </vehicle>
    <vehicle id="moto_35" type="moto__motorcycle" depart="35.00">
        <route edges="458177130#0 1061622295#0 5670124 1117867038#0 682360554#0"/>
    </vehicle>
    <vehicle id="moto_36" type="moto__motorcycle" depart="36.00">
        <route edges="195743209#0 195743345#0 420907902#0 -525729008#5 -167922076#2 -1136952921#1 -167922072#1 127693103#0"/>
    </vehicle>
    <vehicle id="moto_37" type="moto__motorcycle" depart="37.00">
        <route edges="968513231#0 226041027#0 1207834766#0 1198594029#0 194926851#0 1198594030#0 1027189508#0 1027189507#0 226041028#0 167922074#0 167922071#0 452322757#0 452322757#3 452322756#0"/>
    </vehicle>
    <vehicle id="moto_38" type="moto__motorcycle" depart="38.00">
        <route edges="1027189507#0 226041028#0 167922074#0 167922071#0 483360105#0 397795463#0 682360554#0 397795464#0 569345544#0 -167922076#2"/>
    </vehicle>
    <vehicle id="moto_39" type="moto__motorcycle" depart="39.00">
        <route edges="5670124 1117867038#0 682360554#0 397795464#0 569345544#0 167922070#0 195743344#0"/>
    </vehicle>
    <vehicle id="moto_40" type="moto__motorcycle" depart="40.00">
        <route edges="-1413518738 167922074#0 167922071#0 483360105#0 397795463#0 1117867040#1 194926851#0"/>
    </vehicle>
    <vehicle id="moto_41" type="moto__motorcycle" depart="41.00">
        <route edges="968513231#0 226041027#0 1207834766#0 1198594029#0 194926851#0 1198594030#0 1027189508#0 452322756#4"/>
    </vehicle>
    <vehicle id="moto_42" type="moto__motorcycle" depart="42.00">
        <route edges="846142552#0 846142553#0 397795463#0 682360554#0 397795464#0 569345544#0"/>
    </vehicle>
    <vehicle id="moto_43" type="moto__motorcycle" depart="43.00">
        <route edges="-1320290376#1 -542259076#2 -1321771943#1 125480075#0 1198594026#0 1207834766#0 1198594029#0 194926851#0 846142553#0 420494981#0 1051744070#0 464516471#6 464516471#9 464516471#13 464516471#16 5670867#0"/>
    </vehicle>
    <vehicle id="moto_44" type="moto__motorcycle" depart="44.00">
        <route edges="1321771943#0 542259076#0 1320290376#0 -1320290376#1 -542259076#2 -1321771943#1 -525729008#5 525729008#0"/>
    </vehicle>
    <vehicle id="moto_45" type="moto__motorcycle" depart="45.00">
        <route edges="1031879418#0 505317789 542257430#0 195743345#0 420907902#0 125480075#0 1198594026#0 1207834766#0 1198594029#0 1198594028#0 1051744778#0 968513231#0 226041027#0"/>
    </vehicle>
    <vehicle id="moto_46" type="moto__motorcycle" depart="46.00">
        <route edges="384178816#0 384178816#3 511699175#0 458180183#0 1061622295#0 5670124 1117867038#0 682360554#0 397795464#0 569345544#0 -167922076#2 35027229#0 803047267#0"/>
    </vehicle>
    <vehicle id="moto_47" type="moto__motorcycle" depart="47.00">
        <route edges="569345540#0 569345540#3 167922071#0 483360105#0 397795463#0 682360554#0 397795464#0 569345544#0 525729008#0 1321771943#0 542259076#0 1320290376#0"/>
    </vehicle>
    <vehicle id="moto_48" type="moto__motorcycle" depart="48.00">
        <route edges="420907908#0 968513231#0 226041027#0 1198594027#0"/>
    </vehicle>
    <vehicle id="moto_49" type="moto__motorcycle" depart="49.00">
        <route edges="569345544#0 167922070#0 195743344#0 569345545#0"/>
    </vehicle>
    <vehicle id="moto_50" type="moto__motorcycle" depart="50.00">
        <route edges="1413518739#0 452322757#3 452322756#0 1027189507#0 226041028#0 167922074#0 167922073#0 226041029#0 384178816#3 511699175#0"/>
    </vehicle>
    <vehicle id="moto_51" type="moto__motorcycle" depart="51.00">
        <route edges="464516471#13 542258337#0 1051745205#0 569345540#3 167922071#0 483360105#0 397795463#0 682360554#0 1117867028"/>
    </vehicle>
    <vehicle id="moto_52" type="moto__motorcycle" depart="52.00">
        <route edges="5670114#0 542258337#0 1051745205#0 569345540#3 167922071#0 452322757#0 452322757#3 452322756#0 452322756#4"/>
    </vehicle>
    <vehicle id="moto_53" type="moto__motorcycle" depart="53.00">
        <route edges="5670114#0 542258337#0 1051745205#0 569345540#3 167922071#0 452322757#0 452322757#3 452322756#0 452322756#4"/>
    </vehicle>
    <vehicle id="moto_54" type="moto__motorcycle" depart="54.00">
        <route edges="-1136952921#1 -167922072#1 167922072#0 1136952921#0 167922076#0 167922070#0"/>
    </vehicle>
    <vehicle id="moto_55" type="moto__motorcycle" depart="55.00">
        <route edges="-1320290376#1 -542259076#2 -1321771943#1 -525729008#5 -167922076#2 35027229#0 803047266#0"/>
    </vehicle>
    <vehicle id="moto_56" type="moto__motorcycle" depart="56.00">
        <route edges="569345540#0 569345540#3 167922073#0 464516471#13 464516471#16 1211049194#0 569345538#0"/>
    </vehicle>
    <vehicle id="moto_57" type="moto__motorcycle" depart="57.00">
        <route edges="167922070#0 195743209#0 195743345#0 420907902#0 1321771943#0 542259076#0 1320290376#0 -1320290376#1 -542259076#2"/>
    </vehicle>
    <vehicle id="moto_58" type="moto__motorcycle" depart="58.00">
        <route edges="569345540#0 569345540#3 167922071#0 483360105#0 397795463#0 682360554#0 397795464#0 569345544#0 -167922076#2 35027229#0 803047267#0"/>
    </vehicle>
    <vehicle id="moto_59" type="moto__motorcycle" depart="59.00">
        <route edges="-542259076#2 -1321771943#1 125480075#0 1198594026#0 1207834766#0 1198594029#0 194926851#0 846142553#0 420494981#0 1051744070#0 46522000#0 458180183#0 438397345#0"/>
    </vehicle>
    <vehicle id="moto_60" type="moto__motorcycle" depart="60.00">
        <route edges="-167922072#1 127693103#0 127693103#3 464516471#0 464516471#3 464516471#6 464516471#9 226041029#0 5671629#0"/>
    </vehicle>
    <vehicle id="moto_61" type="moto__motorcycle" depart="61.00">
        <route edges="5670114#0 542258337#0 1051745205#0 569345540#3 167922071#0 483360105#0 397795463#0 682360554#0 1117867028 464515890#0 1051846230#0"/>
    </vehicle>
    <vehicle id="moto_62" type="moto__motorcycle" depart="62.00">
        <route edges="397795463#0 1117867040#1 194926851#0 1198594030#0 1027189508#0 1027189507#0 226041028#0 167922074#0 167922071#0 452322757#0 452322757#3"/>
    </vehicle>
    <vehicle id="moto_63" type="moto__motorcycle" depart="63.00">
        <route edges="1320234484#0 1413159922#0 167922074#0 167922071#0 483360105#0 397795463#0 682360554#0 397795464#0 569345544#0 167922070#0 195743344#0 569345545#0"/>
    </vehicle>
    <vehicle id="moto_64" type="moto__motorcycle" depart="64.00">
        <route edges="226041027#0 1198594027#0 397795464#0 569345544#0 525729008#0 125480075#0"/>
    </vehicle>
    <vehicle id="moto_65" type="moto__motorcycle" depart="65.00">
        <route edges="420908138#0 5670867#0"/>
    </vehicle>
    <vehicle id="moto_66" type="moto__motorcycle" depart="66.00">
        <route edges="1198594026#0 1207834766#0 1198594029#0 194926851#0 1198594030#0 1027189508#0 1027189507#0 226041028#0 1413518738"/>
    </vehicle>
    <vehicle id="moto_67" type="moto__motorcycle" depart="67.00">
        <route edges="35027229#0 803047266#0 195743209#0 195743345#0 420907902#0 125480075#0 1198594026#0 1207834766#0 1198594029#0 194926851#0 1198594030#0 1027189508#0 452322756#4"/>
    </vehicle>
    <vehicle id="moto_68" type="moto__motorcycle" depart="68.00">
        <route edges="1031879418#0 505317789 542257430#0 195743345#0 420907902#0 -525729008#5 -167922076#2 -1136952921#1 -167922072#1 127693103#0 127693103#3"/>
    </vehicle>
    <vehicle id="moto_69" type="moto__motorcycle" depart="69.00">
        <route edges="167922072#0 1136952921#0 -1136952921#1 -167922072#1 127693103#0 127693103#3 464516471#0 464516471#3 464516471#6 464516471#9"/>
    </vehicle>
    <vehicle id="moto_70" type="moto__motorcycle" depart="70.00">
        <route edges="1207834766#0 1198594029#0 194926851#0 846142553#0 397795463#0 682360554#0 397795464#0 569345544#0 -167922076#2 -1136952921#1 -167922072#1 127693103#0"/>
    </vehicle>
    <vehicle id="moto_71" type="moto__motorcycle" depart="71.00">
        <route edges="1207834766#0 1198594029#0 194926851#0 846142553#0 420494981#0 1051744070#0 464516471#6 464516471#9 464516471#13 464516471#16 1211049194#0 569345537#0 717625447#4"/>
    </vehicle>
    <vehicle id="moto_72" type="moto__motorcycle" depart="72.00">
        <route edges="1198594028#0 1051744778#0 968513231#0 226041027#0 1198594027#0 1117867028 464515890#0 1051846230#0"/>
    </vehicle>
    <vehicle id="moto_73" type="moto__motorcycle" depart="73.00">
        <route edges="5672464#0 226041025#0 569345543#0 1049845754#0 1198594026#0 1207834766#0 1198594029#0"/>
    </vehicle>
    <vehicle id="moto_74" type="moto__motorcycle" depart="74.00">
        <route edges="1027189508#0 1027189507#0 226041028#0 167922074#0 167922071#0 483360105#0 397795463#0 682360554#0 397795464#0 569345544#0 -167922076#2 -1136952921#1 -167922072#1 127693103#0 226041025#0"/>
    </vehicle>
    <vehicle id="moto_75" type="moto__motorcycle" depart="75.00">
        <route edges="226041027#0 1198594027#0 397795464#0"/>
    </vehicle>
    <vehicle id="moto_76" type="moto__motorcycle" depart="76.00">
        <route edges="542257982#0 125479721#0 542258060#0"/>
    </vehicle>
    <vehicle id="moto_77" type="moto__motorcycle" depart="77.00">
        <route edges="846142553#0 397795463#0 682360554#0 397795464#0 569345543#0 1049845754#0"/>
    </vehicle>
    <vehicle id="moto_78" type="moto__motorcycle" depart="78.00">
        <route edges="1117867038#0 682360554#0 1117867028 464516471#0 464516471#3 464516471#6 464516471#9 226041029#0"/>
    </vehicle>
    <vehicle id="moto_79" type="moto__motorcycle" depart="79.00">
        <route edges="226041027#0 1198594027#0 397795464#0 569345544#0 525729008#0 1321771943#0 542259076#0 1320290376#0"/>
    </vehicle>
    <vehicle id="moto_80" type="moto__motorcycle" depart="80.00">
        <route edges="125480075#0 1198594026#0 1207834766#0 1198594029#0 194926851#0 846142553#0 420494981#0 1051744070#0 464516471#6 464516471#9 464516471#13 464516471#16 1211049194#0 569345537#0 717625447#4"/>
    </vehicle>
    <vehicle id="moto_81" type="moto__motorcycle" depart="81.00">
        <route edges="384178816#0 384178816#3 511699175#0 458180183#0 1061622295#0 5670124 1117867038#0 682360554#0 397795464#0 569345544#0"/>
    </vehicle>
    <vehicle id="moto_82" type="moto__motorcycle" depart="82.00">
        <route edges="452322756#0 1027189507#0 226041028#0 167922074#0 167922071#0 483360105#0 397795463#0 682360554#0 397795464#0 569345544#0 525729008#0 -525729008#5"/>
    </vehicle>
    <vehicle id="moto_83" type="moto__motorcycle" depart="83.00">
        <route edges="968513231#0 226041027#0 1207834766#0 1198594029#0 194926851#0 846142553#0 420494981#0 1051744070#0 464516471#6 464516471#9 464516471#13 464516471#16 1211049194#0 569345538#0"/>
    </vehicle>
    <vehicle id="moto_84" type="moto__motorcycle" depart="84.00">
        <route edges="846142552#0 846142553#0 397795463#0 682360554#0 397795464#0 569345544#0 -167922076#2 35027229#0 803047266#0"/>
    </vehicle>
    <vehicle id="moto_85" type="moto__motorcycle" depart="85.00">
        <route edges="5673323#0 803047266#0 195743209#0 195743345#0 420907902#0 -525729008#5 -167922076#2 -1136952921#1 -167922072#1 167922072#0 1136952921#0"/>
    </vehicle>
    <vehicle id="moto_86" type="moto__motorcycle" depart="86.00">
        <route edges="420494981#0 1051744070#0 46522000#0 458180183#0 1061622295#0 5670124 1117867038#0 682360554#0 397795464#0 569345544#0 525729008#0 125480075#0"/>
    </vehicle>
    <vehicle id="moto_87" type="moto__motorcycle" depart="87.00">
        <route edges="195743209#0 195743345#0 420907902#0 125480075#0 194926846#0 1021047632#0"/>
    </vehicle>
    <vehicle id="moto_88" type="moto__motorcycle" depart="88.00">
        <route edges="194926854#0 125479721#0 542257430#0 195743345#0 420907902#0 125480075#0 1198594026#0 1207834766#0 1198594029#0 1198594028#0 1051744778#0 968513230#0"/>
    </vehicle>
    <vehicle id="moto_89" type="moto__motorcycle" depart="89.00">
        <route edges="384178816#0 384178816#3 511699175#0 458180183#0 1061622295#0 5670124 1117867038#0 682360554#0 397795464#0 569345544#0 167922070#0 195743344#0"/>
    </vehicle>
    <vehicle id="moto_90" type="moto__motorcycle" depart="90.00">
        <route edges="846142552#0 846142553#0 397795463#0 1117867040#1 1198594028#0 1051744778#0 968513231#0"/>
    </vehicle>
    <vehicle id="moto_91" type="moto__motorcycle" depart="91.00">
        <route edges="452322757#0 452322757#3 452322756#0 1027189507#0 226041028#0 167922074#0 167922071#0 483360105#0 420494981#0 1051744070#0 46522000#0 5670225#0"/>
    </vehicle>
    <vehicle id="moto_92" type="moto__motorcycle" depart="92.00">
        <route edges="1106482765#0 511699175#0 458180183#0 1061622295#0 5670124 464516471#3 464516471#6 464516471#9 464516471#13 542258337#0 1051745205#0 1320234484#0 1413159922#0 1413518738"/>
    </vehicle>
    <vehicle id="moto_93" type="moto__motorcycle" depart="93.00">
        <route edges="846142552#0 846142553#0 420494981#0 1051744070#0 46522000#0 458180183#0 1061622295#0 5670124 464516471#3"/>
    </vehicle>
    <vehicle id="moto_94" type="moto__motorcycle" depart="94.00">
        <route edges="-1413518738 167922074#0 167922071#0 483360105#0 420494981#0 1051744070#0 464516471#6"/>
    </vehicle>
    <vehicle id="moto_95" type="moto__motorcycle" depart="95.00">
        <route edges="420907908#0 968513231#0 226041027#0 1198594027#0 397795464#0 569345543#0"/>
    </vehicle>
    <vehicle id="moto_96" type="moto__motorcycle" depart="96.00">
        <route edges="1106482765#0 511699175#0 458180183#0 1061622295#0 5670124 1117867038#0 1117867040#1 194926851#0 846142553#0"/>
    </vehicle>
    <vehicle id="moto_97" type="moto__motorcycle" depart="97.00">
        <route edges="-525729008#5 525729008#0 125480075#0 1198594026#0 1207834766#0 1198594029#0"/>
    </vehicle>
    <vehicle id="moto_98" type="moto__motorcycle" depart="98.00">
        <route edges="569345540#0 1320234484#0 1320234484#3"/>
    </vehicle>
    <vehicle id="moto_99" type="moto__motorcycle" depart="99.00">
        <route edges="226041027#0 1207834766#0 1198594029#0 194926851#0 846142553#0 420494981#0 1051744070#0 464516471#6"/>
    </vehicle>
    <vehicle id="moto_100" type="moto__motorcycle" depart="100.00">
        <route edges="1198594026#0 1207834766#0 1198594029#0 194926851#0 846142553#0 420494981#0 1051744070#0 46522000#0 5670225#0"/>
    </vehicle>
    <vehicle id="moto_101" type="moto__motorcycle" depart="101.00">
        <route edges="167922072#0 1136952921#0 -1136952921#1 -167922072#1 127693103#0 127693103#3 464516471#0 464516471#3 464516471#6 464516471#9 226041029#0 5671629#0"/>
    </vehicle>
    <vehicle id="moto_102" type="moto__motorcycle" depart="102.00">
        <route edges="-167922076#2 -1136952921#1 -167922072#1 127693103#0 127693103#3 464516471#0 464516471#3 464516471#6 464516471#9 226041029#0 384178816#3"/>
    </vehicle>
    <vehicle id="moto_103" type="moto__motorcycle" depart="103.00">
        <route edges="968513231#0"/>
    </vehicle>
    <vehicle id="moto_104" type="moto__motorcycle" depart="104.00">
        <route edges="-167922076#2 167922076#0 525729008#0 125480075#0"/>
    </vehicle>
    <vehicle id="moto_105" type="moto__motorcycle" depart="105.00">
        <route edges="1320234484#0 1413159922#0 167922074#0 167922071#0 483360105#0 397795463#0 682360554#0 397795464#0 569345544#0 -167922076#2 35027229#0 803047267#0"/>
    </vehicle>
    <vehicle id="moto_106" type="moto__motorcycle" depart="106.00">
        <route edges="569345540#0 569345540#3 167922071#0 483360105#0 397795463#0 682360554#0 397795464#0 569345544#0 167922070#0 195743344#0 569345545#0"/>
    </vehicle>
    <vehicle id="moto_107" type="moto__motorcycle" depart="107.00">
        <route edges="194926851#0 846142553#0 420494981#0 1051744070#0 46522000#0 458180183#0 1061622295#0 5670124 1117867038#0"/>
    </vehicle>
    <vehicle id="moto_108" type="moto__motorcycle" depart="108.00">
        <route edges="5673323#0 803047266#0 195743209#0 195743345#0 420907902#0 125480075#0 1198594026#0 1207834766#0 1198594029#0 194926851#0 846142553#0 420494981#0 1051744070#0 46522000#0 5670225#0"/>
    </vehicle>
    <vehicle id="moto_109" type="moto__motorcycle" depart="109.00">
        <route edges="464516471#13 542258337#0 1051745205#0 569345540#3 167922071#0 483360105#0 397795463#0 1117867040#1 1198594028#0 1051744778#0 968513230#0"/>
    </vehicle>
    <vehicle id="moto_110" type="moto__motorcycle" depart="110.00">
        <route edges="46482609#0 226041027#0 1198594027#0 397795464#0 569345544#0 525729008#0 1321771943#0 542259076#0 1320290376#0 -1320290376#1 -542259076#2 -1321771943#1"/>
    </vehicle>
    <vehicle id="moto_111" type="moto__motorcycle" depart="111.00">
        <route edges="5672464#0 127693103#3 464516471#0 464516471#3 464516471#6 464516471#9 464516471#13 542258337#0 1051745205#0 1320234484#0 1413159922#0 1413518738"/>
    </vehicle>
    <vehicle id="moto_112" type="moto__motorcycle" depart="112.00">
        <route edges="46522000#0 458180183#0 1061622295#0 5670124 1117867038#0 682360554#0 397795464#0 569345544#0 -167922076#2 35027229#0 803047267#0"/>
    </vehicle>
    <vehicle id="moto_113" type="moto__motorcycle" depart="113.00">
        <route edges="1051744070#0 464516471#6 464516471#9 464516471#13 542258337#0 1051745205#0"/>
    </vehicle>
    <vehicle id="moto_114" type="moto__motorcycle" depart="114.00">
        <route edges="1031879418#0 505317789 542257430#0 195743345#0 420907902#0 125480075#0 1198594026#0 1207834766#0 1198594029#0 194926851#0 846142553#0 420494981#0 1051744070#0 46522000#0 458180183#0"/>
    </vehicle>
    <vehicle id="moto_115" type="moto__motorcycle" depart="115.00">
        <route edges="542257430#0 195743345#0 420907902#0 125480075#0 1198594026#0 1207834766#0 1198594029#0 194926851#0 846142553#0 420494981#0 1051744070#0 464516471#6 464516471#9 464516471#13 464516471#16 1211049194#0"/>
    </vehicle>
    <vehicle id="moto_116" type="moto__motorcycle" depart="116.00">
        <route edges="464516471#9 464516471#13 542258337#0 1051745205#0 569345540#3 167922071#0 483360105#0 397795463#0 682360554#0 397795464#0 569345544#0 525729008#0 1321771943#0 542259076#0 1320290376#0"/>
    </vehicle>
    <vehicle id="moto_117" type="moto__motorcycle" depart="117.00">
        <route edges="420494981#0 1051744070#0 464516471#6 464516471#9 464516471#13 464516471#16 1211049194#0 569345537#0 717625447#4"/>
    </vehicle>
    <vehicle id="moto_118" type="moto__motorcycle" depart="118.00">
        <route edges="5673323#0 803047266#0 195743209#0 195743345#0 420907902#0 125480075#0 1198594026#0 1207834766#0 1198594029#0 194926851#0 1198594030#0 1027189508#0"/>
    </vehicle>
    <vehicle id="moto_119" type="moto__motorcycle" depart="119.00">
        <route edges="226041027#0 1198594027#0 397795464#0 569345544#0 525729008#0 1321771943#0 542259076#0 1320290376#0"/>
    </vehicle>
    <vehicle id="moto_120" type="moto__motorcycle" depart="120.00">
        <route edges="-1136952921#1 -167922072#1 127693103#0 127693103#3 464516471#0 464516471#3 464516471#6 464516471#9 226041029#0 5671629#0"/>
    </vehicle>
    <vehicle id="moto_121" type="moto__motorcycle" depart="121.00">
        <route edges="46482609#0 226041027#0 1198594027#0 397795464#0 569345544#0 525729008#0 1321771943#0 542259076#0 1320290376#0"/>
    </vehicle>
    <vehicle id="moto_122" type="moto__motorcycle" depart="122.00">
        <route edges="542257982#0 125479721#0 542257430#0 195743345#0 420907902#0 125480075#0 1198594026#0 1207834766#0 1198594029#0 194926851#0 846142553#0 420494981#0 1051744070#0 46522000#0 458180183#0"/>
    </vehicle>
    <vehicle id="moto_123" type="moto__motorcycle" depart="123.00">
        <route edges="226041028#0 167922074#0 167922071#0 483360105#0 397795463#0 682360554#0 397795464#0 569345544#0 525729008#0 1321771943#0 542259076#0 1320290376#0 -1320290376#1 -542259076#2 -1321771943#1"/>
    </vehicle>
    <vehicle id="moto_124" type="moto__motorcycle" depart="124.00">
        <route edges="-167922076#2 35027229#0 803047266#0 195743344#0 569345545#0"/>
    </vehicle>
    <vehicle id="moto_125" type="moto__motorcycle" depart="125.00">
        <route edges="569345543#0 1049845754#0 1198594026#0 1207834766#0 1198594029#0 194926851#0 1198594030#0 1027189508#0 1027189507#0 226041028#0 167922074#0 167922071#0 452322757#0 452322757#3"/>
    </vehicle>
    <vehicle id="moto_126" type="moto__motorcycle" depart="126.00">
        <route edges="5673323#0 803047266#0 195743209#0 195743345#0 420907902#0 125480075#0 1198594026#0 1207834766#0 1198594029#0 194926851#0 846142553#0 420494981#0 1051744070#0 464516471#6"/>
    </vehicle>
    <vehicle id="moto_127" type="moto__motorcycle" depart="127.00">
        <route edges="1061622295#0 5670124 1117867038#0 682360554#0 1117867028 464515890#0 1051846230#0"/>
    </vehicle>
    <vehicle id="moto_128" type="moto__motorcycle" depart="128.00">
        <route edges="167922070#0 195743209#0 195743345#0 420907902#0 125480075#0 1198594026#0 1207834766#0 1198594029#0 194926851#0 846142553#0 397795463#0 682360554#0"/>
    </vehicle>
    <vehicle id="moto_129" type="moto__motorcycle" depart="129.00">
        <route edges="5672036#0 5672036#3 483360105#0 397795463#0 682360554#0 397795464#0 569345544#0"/>
    </vehicle>
    <vehicle id="moto_130" type="moto__motorcycle" depart="130.00">