<?xml version="1.0" encoding="UTF-8"?>

<!-- generated on 2026-03-13T13:04:40.262382+05:30 by Eclipse SUMO duarouter 1.26.0
<duarouterConfiguration xmlns:xsi="http://www.w3.org/2001/XMLSchema-instance" xsi:noNamespaceSchemaLocation="http://sumo.dlr.de/xsd/duarouterConfiguration.xsd">

    <input>
        <net-file value="manhattan.net.xml"/>
        <route-files value="trips_truck.xml"/>
    </input>

    <output>
        <output-file value="routes_truck.rou.xml"/>
    </output>

    <report>
        <ignore-errors value="true"/>
    </report>

</duarouterConfiguration>
-->

<routes xmlns:xsi="http://www.w3.org/2001/XMLSchema-instance" xsi:noNamespaceSchemaLocation="http://sumo.dlr.de/xsd/routes_file.xsd">
    <vType id="truck__truck" vClass="truck"/>
    <vehicle id="truck_0" type="truck__truck" depart="0.00">
        <route edges="46482609#0 226041027#0 1207834766#0 1198594029#0 194926851#0 1198594030#0 1027189508#0 1027189507#0 226041028#0 167922074#0 167922071#0 452322757#0 -1413518739#1"/>
    </vehicle>
    <vehicle id="truck_1" type="truck__truck" depart="20.00">
        <route edges="1413159922#0 167922074#0 167922071#0 483360105#0 397795463#0 682360554#0 397795464#0 569345544#0 -167922076#2 -1136952921#1 -167922072#1 127693103#0 127693103#3"/>
    </vehicle>
    <vehicle id="truck_2" type="truck__truck" depart="40.00">
        <route edges="542257982#0 125479721#0 542258060#0"/>
    </vehicle>
    <vehicle id="truck_3" type="truck__truck" depart="60.00">
        <route edges="569345540#0 569345540#3 167922071#0 452322757#0 452322757#3 452322756#0 1027189507#0"/>
    </vehicle>
    <vehicle id="truck_4" type="truck__truck" depart="80.00">
        <route edges="226041027#0 1207834766#0 1198594029#0 194926851#0 1198594030#0 1027189508#0 1027189507#0 226041028#0 167922074#0 167922071#0 452322757#0 -1413518739#1"/>
    </vehicle>
    <vehicle id="truck_5" type="truck__truck" depart="100.00">
        <route edges="1198594029#0 194926851#0 846142553#0 420494981#0 1051744070#0 46522000#0 458180183#0 438397345#0"/>
    </vehicle>
    <vehicle id="truck_6" type="truck__truck" depart="120.00">
        <route edges="-1320290376#1 -542259076#2 -1321771943#1 125480075#0 1198594026#0 1207834766#0"/>
    </vehicle>
    <vehicle id="truck_7" type="truck__truck" depart="140.00">
        <route edges="46482609#0 226041027#0 1207834766#0 1198594029#0 194926851#0 1198594030#0 1027189508#0 1027189507#0 226041028#0 167922074#0 167922071#0 452322757#0"/>
    </vehicle>
    <vehicle id="truck_8" type="truck__truck" depart="160.00">
        <route edges="1198594029#0 194926851#0 846142553#0 420494981#0 1051744070#0 464516471#6 464516471#9"/>
    </vehicle>
    <vehicle id="truck_9" type="truck__truck" depart="180.00">
        <route edges="5672464#0 226041025#0 569345544#0 525729008#0 1321771943#0 542259076#0 1320290376#0 -1320290376#1 -542259076#2 -1321771943#1"/>
    </vehicle>
    <vehicle id="truck_10" type="truck__truck" depart="200.00">
        <route edges="5672464#0 127693103#3 464516471#0 464516471#3 46522000#0 5670225#0"/>
    </vehicle>
    <vehicle id="truck_11" type="truck__truck" depart="220.00">
        <route edges="167922072#0 1136952921#0 -1136952921#1 -167922072#1 127693103#0 127693103#3 464516471#0 1117867038#0"/>
    </vehicle>
    <vehicle id="truck_12" type="truck__truck" depart="240.00">
        <route edges="846142552#0 1198594030#0 1027189508#0 1027189507#0 226041028#0 167922074#0 167922073#0"/>
    </vehicle>
    <vehicle id="truck_13" type="truck__truck" depart="260.00">
        <route edges="1027189508#0 1027189507#0 226041028#0 167922074#0 167922071#0 483360105#0 397795463#0 682360554#0 397795464#0 569345543#0 1049845754#0"/>
    </vehicle>
    <vehicle id="truck_14" type="truck__truck" depart="280.00">
        <route edges="5672464#0 127693103#3 464516471#0 464516471#3 464516471#6 464516471#9 464516471#13 464516471#16 5670867#0"/>
    </vehicle>
    <vehicle id="truck_15" type="truck__truck" depart="300.00">
        <route edges="194926854#0 125479721#0 542257430#0 195743345#0 420907902#0 125480075#0 1198594026#0 1207834766#0 1198594029#0 194926851#0 846142553#0 420494981#0 1051744070#0 46522000#0 458180183#0"/>
    </vehicle>
    <vehicle id="truck_16" type="truck__truck" depart="320.00">
        <route edges="505317789 542257430#0 195743345#0 420907902#0 -525729008#5 -167922076#2"/>
    </vehicle>
    <vehicle id="truck_17" type="truck__truck" depart="340.00">
        <route edges="1198594030#0 1027189508#0 1027189507#0 226041028#0 167922074#0 167922071#0 483360105#0 397795463#0 682360554#0 397795464#0 569345544#0 525729008#0 1321771943#0"/>
    </vehicle>
    <vehicle id="truck_18" type="truck__truck" depart="360.00">
        <route edges="-525729008#5 -167922076#2 -1136952921#1 -167922072#1 127693103#0 127693103#3 464516471#0 464516471#3 464516471#6 464516471#9 464516471#13 542258337#0 1051745205#0 1320234484#0"/>
    </vehicle>
    <vehicle id="truck_19" type="truck__truck" depart="380.00">
        <route edges="1031879418#0 505317789 542257430#0 195743345#0 420907902#0 1321771943#0 542259076#0 1320290376#0"/>
    </vehicle>
    <vehicle id="truck_20" type="truck__truck" depart="400.00">
        <route edges="464516471#9 464516471#13 542258337#0 1051745205#0 569345540#3 167922071#0 483360105#0 397795463#0 1117867040#1 1198594028#0 1051744778#0 968513231#0 968513229#0 194926847#0"/>
    </vehicle>
    <vehicle id="truck_21" type="truck__truck" depart="420.00">
        <route edges="194926854#0 125479721#0"/>
    </vehicle>
    <vehicle id="truck_22" type="truck__truck" depart="440.00">
        <route edges="1321771943#0 542259076#0 1320290376#0 -1320290376#1 -542259076#2 -1321771943#1 -525729008#5 -167922076#2 35027229#0 803047267#0"/>
    </vehicle>
    <vehicle id="truck_23" type="truck__truck" depart="460.00">
        <route edges="1106482765#0 511699175#0 458180183#0 1061622295#0 5670124 464516471#3 464516471#6 464516471#9 464516471#13 464516471#16 5670867#0"/>
    </vehicle>
    <vehicle id="truck_24" type="truck__truck" depart="480.00">
        <route edges="1106482765#0 511699175#0 458180183#0 1061622295#0 5670124 1117867038#0 1117867040#1 1198594028#0 1051744778#0 968513231#0 968513229#0 194926847#0"/>
    </vehicle>
    <vehicle id="truck_25" type="truck__truck" depart="500.00">
        <route edges="452322757#0 452322757#3 452322756#0 1027189507#0 226041028#0 167922074#0 167922071#0 483360105#0 397795463#0 682360554#0 397795464#0 569345544#0 525729008#0 1321771943#0 542259076#0"/>
    </vehicle>
    <vehicle id="truck_26" type="truck__truck" depart="520.00">
        <route edges="5673323#0 803047266#0 195743209#0 195743345#0 420907902#0 125480075#0 1198594026#0 1207834766#0 1198594029#0 194926851#0 846142553#0 420494981#0 1051744070#0 464516471#6 464516471#9 226041029#0 384178816#3 5672036#0"/>
    </vehicle>
    <vehicle id="truck_27" type="truck__truck" depart="540.00">
        <route edges="1207834766#0 1198594029#0 194926851#0 1198594030#0 1027189508#0 1027189507#0 226041028#0 167922074#0 167922071#0 452322757#0 -1413518739#1"/>
    </vehicle>
    <vehicle id="truck_28" type="truck__truck" depart="560.00">
        <route edges="167922072#0 1136952921#0 167922076#0 525729008#0 1321771943#0 542259076#0 1320290376#0"/>
    </vehicle>
    <vehicle id="truck_29" type="truck__truck" depart="580.00">
        <route edges="1198594027#0 397795464#0 569345544#0 -167922076#2 35027229#0 803047267#0"/>
    </vehicle>
    <vehicle id="truck_30" type="truck__truck" depart="600.00">
        <route edges="569345540#0 1320234484#0 1413159922#0 1413518738"/>
    </vehicle>
    <vehicle id="truck_31" type="truck__truck" depart="620.00">
        <route edges="46482609#0 226041027#0 1198594027#0 397795464#0 569345544#0 167922070#0 195743209#0 195743210"/>
    </vehicle>
    <vehicle id="truck_32" type="truck__truck" depart="640.00">
        <route edges="626514137#0 452322756#0 1027189507#0 226041028#0 167922074#0 167922073#0 226041029#0 384178816#3"/>
    </vehicle>
    <vehicle id="truck_33" type="truck__truck" depart="660.00">
        <route edges="1320234484#0 1320234484#3"/>
    </vehicle>
    <vehicle id="truck_34" type="truck__truck" depart="680.00">
        <route edges="452322757#3 452322756#0 1027189507#0 226041028#0 167922074#0 167922071#0 483360105#0 397795463#0 682360554#0 397795464#0 569345544#0 525729008#0 1321771943#0 542259076#0 1320290376#0"/>
    </vehicle>
    <vehicle id="truck_35" type="truck__truck" depart="700.00">
        <route edges="458177130#0 1061622295#0 5670124 1117867038#0 682360554#0"/>
    </vehicle>
    <vehicle id="truck_36" type="truck__truck" depart="720.00">
        <route edges="195743209#0 195743345#0 420907902#0 -525729008#5 -167922076#2 -1136952921#1 -167922072#1 127693103#0"/>
    </vehicle>
    <vehicle id="truck_37" type="truck__truck" depart="740.00">
        <route edges="968513231#0 226041027#0 1207834766#0 1198594029#0 194926851#0 1198594030#0 1027189508#0 1027189507#0 226041028#0 167922074#0 167922071#0 452322757#0 452322757#3 452322756#0"/>
    </vehicle>
    <vehicle id="truck_38" type="truck__truck" depart="760.00">
        <route edges="1027189507#0 226041028#0 167922074#0 167922071#0 483360105#0 397795463#0 682360554#0 397795464#0 569345544#0 -167922076#2"/>
    </vehicle>
    <vehicle id="truck_39" type="truck__truck" depart="780.00">
        <route edges="5670124 1117867038#0 682360554#0 397795464#0 569345544#0 167922070#0 195743344#0"/>
    </vehicle>
    <vehicle id="truck_40" type="truck__truck" depart="800.00">
        <route edges="-1413518738 167922074#0 167922071#0 483360105#0 397795463#0 1117867040#1 194926851#0"/>
    </vehicle>
    <vehicle id="truck_41" type="truck__truck" depart="820.00">
        <route edges="968513231#0 226041027#0 1207834766#0 1198594029#0 194926851#0 1198594030#0 1027189508#0 452322756#4"/>
    </vehicle>
    <vehicle id="truck_42" type="truck__truck" depart="840.00">
        <route edges="846142552#0 846142553#0 397795463#0 682360554#0 397795464#0 569345544#0"/>
    </vehicle>
    <vehicle id="truck_43" type="truck__truck" depart="860.00">
        <route edges="-1320290376#1 -542259076#2 -1321771943#1 125480075#0 1198594026#0 1207834766#0 1198594029#0 194926851#0 846142553#0 420494981#0 1051744070#0 464516471#6 464516471#9 464516471#13 464516471#16 5670867#0"/>
    </vehicle>
    <vehicle id="truck_44" type="truck__truck" depart="880.00">
        <route edges="1321771943#0 542259076#0 1320290376#0 -1320290376#1 -542259076#2 -1321771943#1 -525729008#5 525729008#0"/>
    </vehicle>
    <vehicle id="truck_45" type="truck__truck" depart="900.00">
        <route edges="1031879418#0 505317789 542257430#0 195743345#0 420907902#0 125480075#0 1198594026#0 1207834766#0 1198594029#0 1198594028#0 1051744778#0 968513231#0 226041027#0"/>
    </vehicle>
    <vehicle id="truck_46" type="truck__truck" depart="920.00">
        <route edges="384178816#0 384178816#3 511699175#0 458180183#0 1061622295#0 5670124 1117867038#0 682360554#0 397795464#0 569345544#0 -167922076#2 35027229#0 803047267#0"/>
    </vehicle>
    <vehicle id="truck_47" type="truck__truck" depart="940.00">
        <route edges="569345540#0 569345540#3 167922071#0 483360105#0 397795463#0 682360554#0 397795464#0 569345544#0 525729008#0 1321771943#0 542259076#0 1320290376#0"/>
    </vehicle>
    <vehicle id="truck_48" type="truck__truck" depart="960.00">
        <route edges="420907908#0 968513231#0 226041027#0 1198594027#0"/>
    </vehicle>
    <vehicle id="truck_49" type="truck__truck" depart="980.00">
        <route edges="569345544#0 167922070#0 195743344#0 569345545#0"/>
    </vehicle>
    <vehicle id="truck_50" type="truck__truck" depart="1000.00">
        <route edges="1413518739#0 452322757#3 452322756#0 1027189507#0 226041028#0 167922074#0 167922073#0 226041029#0 384178816#3 511699175#0"/>
    </vehicle>
    <vehicle id="truck_51" type="truck__truck" depart="1020.00">
        <route edges="464516471#13 542258337#0 1051745205#0 569345540#3 167922071#0 483360105#0 397795463#0 682360554#0 1117867028"/>
    </vehicle>
    <vehicle id="truck_52" type="truck__truck" depart="1040.00">
        <route edges="5670114#0 542258337#0 1051745205#0 569345540#3 167922071#0 452322757#0 452322757#3 452322756#0 452322756#4"/>
    </vehicle>
    <vehicle id="truck_53" type="truck__truck" depart="1060.00">
        <route edges="5670114#0 542258337#0 1051745205#0 569345540#3 167922071#0 452322757#0 452322757#3 452322756#0 452322756#4"/>
    </vehicle>
    <vehicle id="truck_54" type="truck__truck" depart="1080.00">
        <route edges="-1136952921#1 -167922072#1 167922072#0 1136952921#0 167922076#0 167922070#0"/>
    </vehicle>
    <vehicle id="truck_55" type="truck__truck" depart="1100.00">
        <route edges="-1320290376#1 -542259076#2 -1321771943#1 -525729008#5 -167922076#2 35027229#0 803047266#0"/>
    </vehicle>
    <vehicle id="truck_56" type="truck__truck" depart="1120.00">
        <route edges="569345540#0 569345540#3 167922073#0 464516471#13 464516471#16 1211049194#0 569345538#0"/>
    </vehicle>
    <vehicle id="truck_57" type="truck__truck" depart="1140.00">
        <route edges="167922070#0 195743209#0 195743345#0 420907902#0 1321771943#0 542259076#0 1320290376#0 -1320290376#1 -542259076#2"/>
    </vehicle>
    <vehicle id="truck_58" type="truck__truck" depart="1160.00">
        <route edges="569345540#0 569345540#3 167922071#0 483360105#0 397795463#0 682360554#0 397795464#0 569345544#0 -167922076#2 35027229#0 803047267#0"/>
    </vehicle>
    <vehicle id="truck_59" type="truck__truck" depart="1180.00">
        <route edges="-542259076#2 -1321771943#1 125480075#0 1198594026#0 1207834766#0 1198594029#0 194926851#0 846142553#0 420494981#0 1051744070#0 46522000#0 458180183#0 438397345#0"/>
    </vehicle>
    <vehicle id="truck_60" type="truck__truck" depart="1200.00">
        <route edges="-167922072#1 127693103#0 127693103#3 464516471#0 464516471#3 464516471#6 464516471#9 226041029#0 5671629#0"/>
    </vehicle>
    <vehicle id="truck_61" type="truck__truck" depart="1220.00">
        <route edges="5670114#0 542258337#0 1051745205#0 569345540#3 167922071#0 483360105#0 397795463#0 682360554#0 1117867028 464515890#0 1051846230#0"/>
    </vehicle>
    <vehicle id="truck_62" type="truck__truck" depart="1240.00">
        <route edges="397795463#0 1117867040#1 194926851#0 1198594030#0 1027189508#0 1027189507#0 226041028#0 167922074#0 167922071#0 452322757#0 452322757#3"/>
    </vehicle>
    <vehicle id="truck_63" type="truck__truck" depart="1260.00">
        <route edges="1320234484#0 1413159922#0 167922074#0 167922071#0 483360105#0 397795463#0 682360554#0 397795464#0 569345544#0 167922070#0 195743344#0 569345545#0"/>
    </vehicle>
    <vehicle id="truck_64" type="truck__truck" depart="1280.00">
        <route edges="226041027#0 1198594027#0 397795464#0 569345544#0 525729008#0 125480075#0"/>
    </vehicle>
    <vehicle id="truck_65" type="truck__truck" depart="1300.00">
        <route edges="420908138#0 5670867#0"/>
    </vehicle>
    <vehicle id="truck_66" type="truck__truck" depart="1320.00">
        <route edges="1198594026#0 1207834766#0 1198594029#0 194926851#0 1198594030#0 1027189508#0 1027189507#0 226041028#0 1413518738"/>
    </vehicle>
    <vehicle id="truck_67" type="truck__truck" depart="1340.00">
        <route edges="35027229#0 803047266#0 195743209#0 195743345#0 420907902#0 125480075#0 1198594026#0 1207834766#0 1198594029#0 194926851#0 1198594030#0 1027189508#0 452322756#4"/>
    </vehicle>
    <vehicle id="truck_68" type="truck__truck" depart="1360.00">
        <route edges="1031879418#0 505317789 542257430#0 195743345#0 420907902#0 -525729008#5 -167922076#2 -1136952921#1 -167922072#1 127693103#0 127693103#3"/>
    </vehicle>
    <vehicle id="truck_69" type="truck__truck" depart="1380.00">
        <route edges="167922072#0 1136952921#0 -1136952921#1 -167922072#1 127693103#0 127693103#3 464516471#0 464516471#3 464516471#6 464516471#9"/>
    </vehicle>
    <vehicle id="truck_70" type="truck__truck" depart="1400.00">
        <route edges="1207834766#0 1198594029#0 194926851#0 846142553#0 397795463#0 682360554#0 397795464#0 569345544#0 -167922076#2 -1136952921#1 -167922072#1 127693103#0"/>
    </vehicle>
    <vehicle id="truck_71" type="truck__truck" depart="1420.00">
        <route edges="1207834766#0 1198594029#0 194926851#0 846142553#0 420494981#0 1051744070#0 464516471#6 464516471#9 464516471#13 464516471#16 1211049194#0 569345537#0 717625447#4"/>
    </vehicle>
    <vehicle id="truck_72" type="truck__truck" depart="1440.00">
        <route edges="1198594028#0 1051744778#0 968513231#0 226041027#0 1198594027#0 1117867028 464515890#0 1051846230#0"/>
    </vehicle>
    <vehicle id="truck_73" type="truck__truck" depart="1460.00">
        <route edges="5672464#0 226041025#0 569345543#0 1049845754#0 1198594026#0 1207834766#0 1198594029#0"/>
    </vehicle>
    <vehicle id="truck_74" type="truck__truck" depart="1480.00">
        <route edges="1027189508#0 1027189507#0 226041028#0 167922074#0 167922071#0 483360105#0 397795463#0 682360554#0 397795464#0 569345544#0 -167922076#2 -1136952921#1 -167922072#1 127693103#0 226041025#0"/>
    </vehicle>
    <vehicle id="truck_75" type="truck__truck" depart="1500.00">
        <route edges="226041027#0 1198594027#0 397795464#0"/>
    </vehicle>
    <vehicle id="truck_76" type="truck__truck" depart="1520.00">
        <route edges="542257982#0 125479721#0 542258060#0"/>
    </vehicle>
    <vehicle id="truck_77" type="truck__truck" depart="1540.00">
        <route edges="846142553#0 397795463#0 682360554#0 397795464#0 569345543#0 1049845754#0"/>
    </vehicle>
    <vehicle id="truck_78" type="truck__truck" depart="1560.00">
        <route edges="1117867038#0 682360554#0 1117867028 464516471#0 464516471#3 464516471#6 464516471#9 226041029#0"/>
    </vehicle>
    <vehicle id="truck_79" type="truck__truck" depart="1580.00">
        <route edges="226041027#0 1198594027#0 397795464#0 569345544#0 525729008#0 1321771943#0 542259076#0 1320290376#0"/>
    </vehicle>
    <vehicle id="truck_80" type="truck__truck" depart="1600.00">
        <route edges="125480075#0 1198594026#0 1207834766#0 1198594029#0 194926851#0 846142553#0 420494981#0 1051744070#0 464516471#6 464516471#9 464516471#13 464516471#16 1211049194#0 569345537#0 717625447#4"/>
    </vehicle>
    <vehicle id="truck_81" type="truck__truck" depart="1620.00">
        <route edges="384178816#0 384178816#3 511699175#0 458180183#0 1061622295#0 5670124 1117867038#0 682360554#0 397795464#0 569345544#0"/>
    </vehicle>
    <vehicle id="truck_82" type="truck__truck" depart="1640.00">
        <route edges="452322756#0 1027189507#0 226041028#0 167922074#0 167922071#0 483360105#0 397795463#0 682360554#0 397795464#0 569345544#0 525729008#0 -525729008#5"/>
    </vehicle>
    <vehicle id="truck_83" type="truck__truck" depart="1660.00">
        <route edges="968513231#0 226041027#0 1207834766#0 1198594029#0 194926851#0 846142553#0 420494981#0 1051744070#0 464516471#6 464516471#9 464516471#13 464516471#16 1211049194#0 569345538#0"/>
    </vehicle>
    <vehicle id="truck_84" type="truck__truck" depart="1680.00">
        <route edges="846142552#0 846142553#0 397795463#0 682360554#0 397795464#0 569345544#0 -167922076#2 35027229#0 803047266#0"/>
    </vehicle>
    <vehicle id="truck_85" type="truck__truck" depart="1700.00">
        <route edges="5673323#0 803047266#0 195743209#0 195743345#0 420907902#0 -525729008#5 -167922076#2 -1136952921#1 -167922072#1 167922072#0 1136952921#0"/>
    </vehicle>
    <vehicle id="truck_86" type="truck__truck" depart="1720.00">
        <route edges="420494981#0 1051744070#0 46522000#0 458180183#0 1061622295#0 5670124 1117867038#0 682360554#0 397795464#0 569345544#0 525729008#0 125480075#0"/>
    </vehicle>
    <vehicle id="truck_87" type="truck__truck" depart="1740.00">
        <route edges="195743209#0 195743345#0 420907902#0 125480075#0 194926846#0 1021047632#0"/>
    </vehicle>
    <vehicle id="truck_88" type="truck__truck" depart="1760.00">
        <route edges="194926854#0 125479721#0 542257430#0 195743345#0 420907902#0 125480075#0 1198594026#0 1207834766#0 1198594029#0 1198594028#0 1051744778#0 968513230#0"/>
    </vehicle>
    <vehicle id="truck_89" type="truck__truck" depart="1780.00">
        <route edges="384178816#0 384178816#3 511699175#0 458180183#0 1061622295#0 5670124 1117867038#0 682360554#0 397795464#0 569345544#0 167922070#0 195743344#0"/>
    </vehicle>
    <vehicle id="truck_90" type="truck__truck" depart="1800.00">
        <route edges="846142552#0 846142553#0 397795463#0 1117867040#1 1198594028#0 1051744778#0 968513231#0"/>
    </vehicle>
    <vehicle id="truck_91" type="truck__truck" depart="1820.00">
        <route edges="452322757#0 452322757#3 452322756#0 1027189507#0 226041028#0 167922074#0 167922071#0 483360105#0 420494981#0 1051744070#0 46522000#0 5670225#0"/>
    </vehicle>
    <vehicle id="truck_92" type="truck__truck" depart="1840.00">
        <route edges="1106482765#0 511699175#0 458180183#0 1061622295#0 5670124 464516471#3 464516471#6 464516471#9 464516471#13 542258337#0 1051745205#0 1320234484#0 1413159922#0 1413518738"/>
    </vehicle>
    <vehicle id="truck_93" type="truck__truck" depart="1860.00">
        <route edges="846142552#0 846142553#0 420494981#0 1051744070#0 46522000#0 458180183#0 1061622295#0 5670124 464516471#3"/>
    </vehicle>
    <vehicle id="truck_94" type="truck__truck" depart="1880.00">
        <route edges="-1413518738 167922074#0 167922071#0 483360105#0 420494981#0 1051744070#0 464516471#6"/>
    </vehicle>
    <vehicle id="truck_95" type="truck__truck" depart="1900.00">
        <route edges="420907908#0 968513231#0 226041027#0 1198594027#0 397795464#0 569345543#0"/>
    </vehicle>
    <vehicle id="truck_96" type="truck__truck" depart="1920.00">
        <route edges="1106482765#0 511699175#0 458180183#0 1061622295#0 5670124 1117867038#0 1117867040#1 194926851#0 846142553#0"/>
    </vehicle>
    <vehicle id="truck_97" type="truck__truck" depart="1940.00">
        <route edges="-525729008#5 525729008#0 125480075#0 1198594026#0 1207834766#0 1198594029#0"/>
    </vehicle>
    <vehicle id="truck_98" type="truck__truck" depart="1960.00">
        <route edges="569345540#0 1320234484#0 1320234484#3"/>
    </vehicle>
    <vehicle id="truck_99" type="truck__truck" depart="1980.00">
        <route edges="226041027#0 1207834766#0 1198594029#0 194926851#0 846142553#0 420494981#0 1051744070#0 464516471#6"/>
    </vehicle>
    <vehicle id="truck_100" type="truck__truck" depart="2000.00">
        <route edges="1198594026#0 1207834766#0 1198594029#0 194926851#0 846142553#0 420494981#0 1051744070#0 46522000#0 5670225#0"/>
    </vehicle>
    <vehicle id="truck_101" type="truck__truck" depart="2020.00">
        <route edges="167922072#0 1136952921#0 -1136952921#1 -167922072#1 127693103#0 127693103#3 464516471#0 464516471#3 464516471#6 464516471#9 226041029#0 5671629#0"/>
    </vehicle>
    <vehicle id="truck_102" type="truck__truck" depart="2040.00">
        <route edges="-167922076#2 -1136952921#1 -167922072#1 127693103#0 127693103#3 464516471#0 464516471#3 464516471#6 464516471#9 226041029#0 384178816#3"/>
    </vehicle>
    <vehicle id="truck_103" type="truck__truck" depart="2060.00">
        <route edges="968513231#0"/>
    </vehicle>
    <vehicle id="truck_104" type="truck__truck" depart="2080.00">
        <route edges="-167922076#2 167922076#0 525729008#0 125480075#0"/>
    </vehicle>
    <vehicle id="truck_105" type="truck__truck" depart="2100.00">
        <route edges="1320234484#0 1413159922#0 167922074#0 167922071#0 483360105#0 397795463#0 682360554#0 397795464#0 569345544#0 -167922076#2 35027229#0 803047267#0"/>
    </vehicle>
    <vehicle id="truck_106" type="truck__truck" depart="2120.00">
        <route edges="569345540#0 569345540#3 167922071#0 483360105#0 397795463#0 682360554#0 397795464#0 569345544#0 167922070#0 195743344#0 569345545#0"/>
    </vehicle>
    <vehicle id="truck_107" type="truck__truck" depart="2140.00">
        <route edges="194926851#0 846142553#0 420494981#0 1051744070#0 46522000#0 458180183#0 1061622295#0 5670124 1117867038#0"/>
    </vehicle>
    <vehicle id="truck_108" type="truck__truck" depart="2160.00">
        <route edges="5673323#0 803047266#0 195743209#0 195743345#0 420907902#0 125480075#0 1198594026#0 1207834766#0 1198594029#0 194926851#0 846142553#0 420494981#0 1051744070#0 46522000#0 5670225#0"/>
    </vehicle>
    <vehicle id="truck_109" type="truck__truck" depart="2180.00">
        <route edges="464516471#13 542258337#0 1051745205#0 569345540#3 167922071#0 483360105#0 397795463#0 1117867040#1 1198594028#0 1051744778#0 968513230#0"/>
    </vehicle>
    <vehicle id="truck_110" type="truck__truck" depart="2200.00">
        <route edges="46482609#0 226041027#0 1198594027#0 397795464#0 569345544#0 525729008#0 1321771943#0 542259076#0 1320290376#0 -1320290376#1 -542259076#2 -1321771943#1"/>
    </vehicle>
    <vehicle id="truck_111" type="truck__truck" depart="2220.00">
        <route edges="5672464#0 127693103#3 464516471#0 464516471#3 464516471#6 464516471#9 464516471#13 542258337#0 1051745205#0 1320234484#0 1413159922#0 1413518738"/>
    </vehicle>
    <vehicle id="truck_112" type="truck__truck" depart="2240.00">
        <route edges="46522000#0 458180183#0 1061622295#0 5670124 1117867038#0 682360554#0 397795464#0 569345544#0 -167922076#2 35027229#0 803047267#0"/>
    </vehicle>
    <vehicle id="truck_113" type="truck__truck" depart="2260.00">
        <route edges="1051744070#0 464516471#6 464516471#9 464516471#13 542258337#0 1051745205#0"/>
    </vehicle>
    <vehicle id="truck_114" type="truck__truck" depart="2280.00">
        <route edges="1031879418#0 505317789 542257430#0 195743345#0 420907902#0 125480075#0 1198594026#0 1207834766#0 1198594029#0 194926851#0 846142553#0 420494981#0 1051744070#0 46522000#0 458180183#0"/>
    </vehicle>
    <vehicle id="truck_115" type="truck__truck" depart="2300.00">
        <route edges="542257430#0 195743345#0 420907902#0 125480075#0 1198594026#0 1207834766#0 1198594029#0 194926851#0 846142553#0 420494981#0 1051744070#0 464516471#6 464516471#9 464516471#13 464516471#16 1211049194#0"/>
    </vehicle>
    <vehicle id="truck_116" type="truck__truck" depart="2320.00">
        <route edges="464516471#9 464516471#13 542258337#0 1051745205#0 569345540#3 167922071#0 483360105#0 397795463#0 682360554#0 397795464#0 569345544#0 525729008#0 1321771943#0 542259076#0 1320290376#0"/>
    </vehicle>
    <vehicle id="truck_117" type="truck__truck" depart="2340.00">
        <route edges="420494981#0 1051744070#0 464516471#6 464516471#9 464516471#13 464516471#16 1211049194#0 569345537#0 717625447#4"/>
    </vehicle>
    <vehicle id="truck_118" type="truck__truck" depart="2360.00">
        <route edges="5673323#0 803047266#0 195743209#0 195743345#0 420907902#0 125480075#0 1198594026#0 1207834766#0 1198594029#0 194926851#0 1198594030#0 1027189508#0"/>
    </vehicle>
    <vehicle id="truck_119" type="truck__truck" depart="2380.00">
        <route edges="226041027#0 1198594027#0 397795464#0 569345544#0 525729008#0 1321771943#0 542259076#0 1320290376#0"/>
    </vehicle>
    <vehicle id="truck_120" type="truck__truck" depart="2400.00">
        <route edges="-1136952921#1 -167922072#1 127693103#0 127693103#3 464516471#0 464516471#3 464516471#6 464516471#9 226041029#0 5671629#0"/>
    </vehicle>
    <vehicle id="truck_121" type="truck__truck" depart="2420.00">
        <route edges="46482609#0 226041027#0 1198594027#0 397795464#0 569345544#0 525729008#0 1321771943#0 542259076#0 1320290376#0"/>
    </vehicle>
    <vehicle id="truck_122" type="truck__truck" depart="2440.00">
        <route edges="542257982#0 125479721#0 542257430#0 195743345#0 420907902#0 125480075#0 1198594026#0 1207834766#0 1198594029#0 194926851#0 846142553#0 420494981#0 1051744070#0 46522000#0 458180183#0"/>
    </vehicle>
    <vehicle id="truck_123" type="truck__truck" depart="2460.00">
        <route edges="226041028#0 167922074#0 167922071#0 483360105#0 397795463#0 682360554#0 397795464#0 569345544#0 525729008#0 1321771943#0 542259076#0 1320290376#0 -1320290376#1 -542259076#2 -1321771943#1"/>
    </vehicle>
    <vehicle id="truck_124" type="truck__truck" depart="2480.00">
        <route edges="-167922076#2 35027229#0 803047266#0 195743344#0 569345545#0"/>
    </vehicle>
    <vehicle id="truck_125" type="truck__truck" depart="2500.00">
        <route edges="569345543#0 1049845754#0 1198594026#0 1207834766#0 1198594029#0 194926851#0 1198594030#0 1027189508#0 1027189507#0 226041028#0 167922074#0 167922071#0 452322757#0 452322757#3"/>
    </vehicle>
    <vehicle id="truck_126" type="truck__truck" depart="2520.00">
        <route edges="5673323#0 803047266#0 195743209#0 195743345#0 420907902#0 125480075#0 1198594026#0 1207834766#0 1198594029#0 194926851#0 846142553#0 420494981#0 1051744070#0 464516471#6"/>
    </vehicle>
    <vehicle id="truck_127" type="truck__truck" depart="2540.00">
        <route edges="1061622295#0 5670124 1117867038#0 682360554#0 1117867028 464515890#0 1051846230#0"/>
    </vehicle>
    <vehicle id="truck_128" type="truck__truck" depart="2560.00">
        <route edges="167922070#0 195743209#0 195743345#0 420907902#0 125480075#0 1198594026#0 1207834766#0 1198594029#0 194926851#0 846142553#0 397795463#0 682360554#0"/>
    </vehicle>
    <vehicle id="truck_129" type="truck__truck" depart="2580.00">
        <route edges="5672036#0 5672036#3 483360105#0 397795463#0 682360554#0 397795464#0 569345544#0"/>
    </vehicle>
    <vehicle id="truck_130" type="truck__truck" depart="2600.00">
        <route edges="125480075#0 1198594026#0 1207834766#0 1198594029#0 194926851#0 846142553#0 420494981#0 1051744070#0"/>
    </vehicle>
    <vehicle id="truck_131" type="truck__truck" depart="2620.00">